# STO-3G

title

0 1
C      1.044043512754     3.797030834551     0.524133955160
C      1.542825775279     4.182156882850     1.790085817520
C      2.054350082129     5.478508638413     1.990281051912
C      2.077799165550     6.408445802562     0.933386461366
C      1.587964760838     6.031060409087    -0.332559460946
C      1.080854020300     4.734621591778    -0.536224404681
H     -1.530190099932    -0.161182457276     3.024191950426
H      1.528170103828     3.472057617008     2.614699913968
H      2.430359788705     5.759500674127     2.971625619661
H      2.470309976953     7.410420897640     1.092182757506
H      1.599707485894     6.743615045625    -1.154783196125
H      0.709354512871     4.461877176766    -1.523844239682
C      1.794619040747     1.572440123961    -0.183843285124
H      2.471282978937     1.328282626008     0.636334595670
H      2.321304543694     2.089434519218    -1.004195583289
C      0.542419969412     2.344974769381     0.318420832101
H      0.303829790681     1.969213549770     1.311328753844
C     -0.709429270493     2.177964744596    -0.487922841155
O     -1.825179632080     2.453119593898     0.026296481897
O     -0.617187559534     1.519834914105    -1.732991479161
C     -1.858306003595     1.355868625767    -2.435870879264
H     -1.678825921805     0.823552879735    -3.394617050402
H     -2.578495967782     0.751234277692    -1.836349781832
H     -2.317419380190     2.344505169785    -2.664679870449
Pd     1.289765667781    -0.115800751273    -1.186952592941
C      0.375760587027    -0.971949771719     1.376922621246
O     -0.774008549897    -0.821746587672     0.814784318469
O      1.508833455236    -0.989893660393     0.744888726015
C      0.395516568007    -0.993094573174     2.923426923689
H      1.386844710230    -0.698830506810     3.273143772006
C      0.021435040008    -2.339513993573     3.499959201593
H      0.053292500806    -2.284233347727     4.607755209334
H     -1.011090216416    -2.601216278187     3.188159993943
H      0.729707725808    -3.117977868527     3.150255259992
N     -0.587604101587    -0.007633614254     3.371121736703
C     -0.207053897381     1.246303908226     3.733285483500
O      0.983016213535     1.630998357998     3.846169204270
C     -1.309938161810     2.200029978212     3.967886582055
H     -0.881204406151     3.176191019402     4.254309524273
H     -1.879581591180     2.295340007321     3.026105612375
H     -1.947795082024     1.798207858690     4.773332456658
N      0.521707896601    -1.667834490773    -2.508120748257
C      1.266623070375    -2.133002241663    -3.559028930516
C      0.692394734015    -2.954434345796    -4.506455936030
C     -0.629956329872    -3.325779707302    -4.401855314880
C     -1.350373975192    -2.862572975350    -3.333426721489
C     -0.725470484856    -2.032086408887    -2.378022581085
H      2.305908267732    -1.840538214937    -3.654110565644
H      1.286012149503    -3.309912702322    -5.333341950530
H     -1.087858820076    -3.974802333788    -5.143932699485
H     -2.378820846164    -3.127314811920    -3.183044317015
O     -1.518773596536    -1.679597758838    -1.389014742264
H     -1.126008431208    -1.223007780049    -0.525873991672

