# STO-3G

title

0 1
C      0.289191291825     3.940689534507     0.291510744491
C      0.180808484343     4.478055320498     1.594894780807
C      0.521394214445     5.821055032449     1.845205591010
C      0.979595647889     6.648580580900     0.801975162141
C      1.098386878230     6.120292392082    -0.498567049457
C      0.760722197046     4.777560377990    -0.749374370791
H      0.894172094313    -1.126549216715     4.262396565222
H     -0.161726794446     3.836508653030     2.401962707435
H      0.423654252489     6.221270603472     2.852445268221
H      1.237683419828     7.687308984569     0.997108825370
H      1.447972172178     6.752482345454    -1.312484213285
H      0.859887073890     4.388543541499    -1.762844972779
C      1.317367488093     1.719471809294     0.186582270683
H      1.600138059522     1.588669391525     1.230306859685
H      2.129232596090     2.180479667398    -0.402217103763
C     -0.050002574106     2.446782344003     0.056068250386
H     -0.659377245195     2.129132948096     0.899729137415
C     -0.847725327252     2.136973089447    -1.175632718977
O     -2.089512629789     2.340960298016    -1.188154325316
O     -0.219706974440     1.402618688259    -2.204995588785
C     -1.042251665116     1.112345504059    -3.345422564994
H     -0.458030174675     0.530525070170    -4.090473500467
H     -1.930094450484     0.504733615253    -3.052205985446
H     -1.391333946787     2.052276892957    -3.830506518249
Pd     1.234486398220    -0.067920556192    -0.759289291508
C     -0.427675806106    -0.892754916264     1.450667139710
O     -1.361700450890    -0.806367087771     0.582878855479
O      0.846658963737    -0.807061197910     1.179002915487
C     -0.754657866185    -1.163138522484     2.943882302759
H     -0.661121882555    -2.247321801410     3.094492348818
C     -2.157670014051    -0.749653672323     3.340296828358
H     -2.305462054290    -0.927670188546     4.425272505387
H     -2.313029471497     0.328013093035     3.127756552121
H     -2.905389268544    -1.338784610443     2.770388307741
N      0.215630695492    -0.515050826049     3.828980872869
C      0.455598235197     0.820846712823     3.818978419259
O     -0.170010395993     1.657801478430     3.126677890048
C      1.542807547804     1.279973680938     4.708140346551
H      1.626225613688     2.378121646407     4.625641279063
H      1.277110319089     0.986943824800     5.737417020635
H      2.479805344169     0.792989599893     4.388961455065
N      0.967528549614    -1.758936273119    -2.110995648039
C      2.015900217575    -2.271012548810    -2.827683931415
C      1.784679592714    -3.167235763963    -3.850287780178
C      0.501897705922    -3.566985066081    -4.153814366589
C     -0.529067651482    -3.055099252573    -3.411965901094
C     -0.252602556349    -2.147879677745    -2.365967509168
H      3.028130117805    -1.956951622444    -2.600877469130
H      2.616691828592    -3.559452168944    -4.412703073531
H      0.313243042749    -4.274922106639    -4.956795800004
H     -1.549359688196    -3.336590242109    -3.585585720256
O     -1.327285377527    -1.751721080194    -1.718421456406
H     -1.251797428877    -1.242442447468    -0.802838772507

