# STO-3G

title

0 1
C      1.180846945909     2.363762177477     1.127375132421
C      2.365521784606     1.713628635635     1.533810180387
C      3.025214086025     2.092972031689     2.718069339094
C      2.508437882074     3.131785099648     3.515097487219
C      1.318529708221     3.780022071325     3.126619551267
C      0.658823827801     3.396643368693     1.944814231915
H     -1.090394447492    -1.582779958804     2.817400821568
H      2.772106051277     0.901646480450     0.934769282180
H      3.927278261324     1.566831840850     3.018006255704
H      3.021288409176     3.428144588521     4.427301093372
H      0.911777429661     4.582860314849     3.738025212162
H     -0.256807394592     3.912253320792     1.656053918341
C     -0.739656727876     1.089100810058     0.295538678009
H     -0.403195080284     0.366789210529     1.042085047536
H     -1.577210111785     1.678171435220     0.688512839519
C      0.467776041051     1.931711039911    -0.184258829598
H      1.166403527789     1.256411317870    -0.684367502961
C      0.185677983744     3.059778773358    -1.137302356492
O      1.015440607884     3.323414391740    -2.048111410849
O     -1.054442663496     3.727713452478    -1.068848511849
C     -1.177609544329     4.888392405254    -1.903446074966
H     -2.183462131360     5.339427567923    -1.765744491711
H     -0.414393928394     5.651896707910    -1.628423727088
H     -1.055086224709     4.622810137761    -2.978025931544
Pd    -1.723727355480    -0.138040488605    -1.022509007773
C     -0.359891297361    -2.132225743419     0.365750609257
O      0.441758773685    -1.951922328778    -0.613036998029
O     -1.583021215567    -1.639713389904     0.443589957139
C      0.146130726160    -2.819325171787     1.651189886553
H      1.224293796334    -2.972069376555     1.572453034667
C     -0.548155364084    -4.129123806253     1.948523183068
H     -0.127452372231    -4.561038353342     2.880098784265
H     -1.632292625408    -3.949203952993     2.099481431184
H     -0.395695926130    -4.842328087923     1.112976713478
N     -0.124520135155    -1.886940964548     2.749987714395
C      0.886111083755    -1.189391076244     3.343852800075
O      2.101992950982    -1.330957590573     3.078680582323
C      0.488278725472    -0.193410464721     4.362768168801
H      1.052545677993    -0.418437328261     5.282488159185
H      0.770713041844     0.799419729713     3.974853292522
H     -0.596464285887    -0.237992981181     4.558395913754
N     -1.170689991579     0.821183008667    -2.751927814549
C     -1.918366907823     1.735180068857    -3.445330697995
C     -1.491675663755     2.185635231515    -4.675788703758
C     -0.303804451616     1.737355706120    -5.211888804107
C      0.422610542203     0.815735976067    -4.505777275623
C     -0.042422872442     0.370991593411    -3.251658323875
H     -2.845274121407     2.105573432793    -3.023089381243
H     -2.082772848318     2.908535441949    -5.213571149636
H      0.047504135241     2.103914825709    -6.172858745597
H      1.361294095114     0.439758317111    -4.862968161810
O      0.750783434492    -0.497156716462    -2.668114641686
H      0.502364415429    -1.025936616134    -1.797222942159

