# STO-3G

title

0 1
C     -0.074111122795     3.051263995519     0.195327966696
C     -0.178426782519     4.458283184175     0.330011584828
C     -1.070792136156     5.197787501369    -0.463989473551
C     -1.868428827793     4.543065665522    -1.422668426656
C     -1.758238822072     3.146802495268    -1.581747472955
C     -0.872124553473     2.407366278763    -0.782862274735
H     -3.542696514346     0.509098686636     0.446840164132
H      0.438648116277     4.969568390260     1.066934123066
H     -1.140229276927     6.275824193639    -0.340946269152
H     -2.555499670184     5.111622840653    -2.044764887696
H     -2.349838676355     2.631590714131    -2.334382705534
H     -0.783607385595     1.341665900976    -0.953932027782
C      0.852283467597     2.337649706597     1.105249668096
H      3.352909394569     1.733518831827     0.714675997929
H      1.440619585851     3.002443645300     1.732778943560
C      0.819191570237     0.970974901634     1.436648030844
H      0.136383550370     0.295880573872     0.948337362134
C      1.469442092390     0.395506442021     2.622871590514
O      1.577892688260    -0.857324944208     2.673373772143
O      2.387594271153     1.203866608211     3.319798300123
C      2.984906323067     0.599880034226     4.476345806397
H      3.657941206880     1.332667650058     4.971275642670
H      2.203187485488     0.298146163956     5.211041838162
H      3.588704801049    -0.292832600017     4.194774197367
Pd     2.284265948436     1.166692680683    -0.207550831688
C     -1.745733911477    -1.145266717269    -0.508381605580
O     -0.403720384733    -1.281087990524    -0.440843311318
O     -2.396081834563    -0.881565908884    -1.541732381211
C     -2.390398434572    -1.196133578024     0.898464044096
H     -1.631778302912    -1.428678644162     1.647744915359
C     -3.530645581706    -2.184910415107     0.989870908677
H     -3.955244405081    -2.161444690427     2.014555694312
H     -4.323962809507    -1.899701570235     0.267909426995
H     -3.168819463770    -3.208611402266     0.764345067819
N     -2.923708127323     0.147694369012     1.163826707772
C     -2.446780980099     0.954748161580     2.150390010898
O     -1.506529770514     0.662495173077     2.929945119506
C     -3.078032475496     2.286664093589     2.278773081718
H     -3.446588194091     2.383190760531     3.312277411478
H     -2.295310028489     3.035464756983     2.072122297228
H     -3.907359660463     2.403620052974     1.560088856088
N      3.381860194175     0.419504698911    -1.828916326650
C      4.643934051201     0.303883642228    -2.338038383146
C      4.857952004333    -0.469919545727    -3.462723052051
C      3.809241176933    -1.123611011542    -4.082802478116
C      2.549507645105    -0.991898946053    -3.554973390101
C      2.371574828830    -0.195646535911    -2.405637512817
H      5.471290388436     0.814735142159    -1.859385630324
H      5.855097419300    -0.559738245513    -3.862466045944
H      3.978273635918    -1.727753559195    -4.970468451981
H      1.689984314939    -1.462536737228    -3.989435290190
O      1.178864181773    -0.058188563381    -1.892457554143
H      0.180411120583    -0.932932560346    -1.220910624573

