# STO-3G

title

0 1
C     -0.065128618493     3.550969143511    -0.010184963542
C      0.017410050579     4.964776495126    -0.037045861241
C     -0.757340109294     5.717969192446    -0.934560661815
C     -1.624507898659     5.066248515037    -1.832293883227
C     -1.705586213440     3.658807053636    -1.823689588991
C     -0.936622439077     2.904102623687    -0.924022071023
H     -2.831661342842     0.311423909897     0.364488920035
H      0.690907336080     5.471933862191     0.651995508719
H     -0.683364096254     6.802572315853    -0.937008434014
H     -2.221902147336     5.644160757493    -2.533261594731
H     -2.360449443186     3.149741498957    -2.526996143493
H     -1.002708677910     1.820904769864    -0.948644933463
C      0.761265167859     2.825571840942     0.981492132359
H      3.248984285188     2.060048212168     0.766455385583
H      1.385543622140     3.464786907946     1.601273708935
C      0.613215651959     1.476466357544     1.347215789466
H     -0.128859310910     0.873071162221     0.851028029818
C      1.209205714594     0.861490838274     2.541553903837
O      2.213400878377     1.433278544120     3.046785676372
O      1.055272759675    -0.524788376842     2.680223237719
C      1.534169124817    -1.078348064524     3.912447525673
H      1.335763876702    -2.171963615768     3.922603014944
H      2.631197247447    -0.924047951740     4.023427978764
H      0.999940180011    -0.625191370018     4.778992043631
Pd     2.203072686359     1.505445003497    -0.190462083560
C     -0.910048333201    -1.581257902681     0.121359505889
O     -0.868845729401    -0.504254982168    -0.712912441710
O     -0.228820493765    -2.610938808102    -0.013726954483
C     -1.923116616400    -1.364265588733     1.273912001552
H     -1.385017420148    -1.499116067594     2.219100370708
C     -3.056820099154    -2.365351306334     1.223243576067
H     -3.719311591487    -2.216539406950     2.100937635352
H     -3.648185309348    -2.202473297996     0.299273577764
H     -2.659375794561    -3.401397588553     1.238374008948
N     -2.504845641102    -0.022984412900     1.263687498446
C     -2.386656170810     0.839426218246     2.309338957067
O     -1.728654910786     0.626107758559     3.355512950476
C     -3.090910607796     2.127600993585     2.143818622237
H     -4.160072744661     1.911333017032     1.985523596956
H     -2.942079484039     2.731114114193     3.055120766315
H     -2.663004062217     2.647072137432     1.269310891931
N      3.371192786637     0.586547891924    -1.659056739576
C      4.660173693788     0.338777340032    -2.035810343080
C      4.910638087379    -0.545471086428    -3.067846789867
C      3.872302187670    -1.180215837925    -3.724455829908
C      2.585000387479    -0.912938896831    -3.330895675245
C      2.370576487002    -0.006083376700    -2.273967322488
H      5.479440833658     0.831897038908    -1.525650025698
H      5.928926931793    -0.741484567843    -3.362334803936
H      4.071057535321    -1.876541284590    -4.535059936622
H      1.734010261805    -1.370709920679    -3.793944195503
O      1.155244118934     0.257048355856    -1.878664257226
H     -0.039655872899    -0.401836137708    -1.326159727482

