# STO-3G

title

0 1
C      0.290862802205     0.365115854088     1.572115734424
C      1.530079553152    -0.201098519572     1.944384839928
C      2.515242047251     0.603040630582     2.551499657225
C      2.263242319953     1.969041513108     2.798510165279
C      1.020673152452     2.532100034575     2.440449273753
C      0.036330344993     1.729958160628     1.829243395146
H     -0.484661564837    -0.262842252653     1.139979354054
H      1.703063196286    -1.257595388619     1.758259058071
H      3.466824449177     0.163427407589     2.844187741716
H      3.020452745976     2.582448496711     3.283104528965
H      0.813573794861     3.578769872850     2.652541255313
H     -0.932236679650     2.156919216485     1.574996366595
C     -0.019520354692     1.234194341062    -3.004293621265
H      0.887019860737     1.469806604783    -3.556067623364
H     -0.690038989763     0.520348049345    -3.471566048035
C     -0.440499883836     2.000184064362    -1.900113331802
H     -1.407247094474     1.781651618935    -1.472237552430
C      0.165423892601     3.274291484134    -1.478679742746
O      1.204322808285     3.697383681129    -2.051381803240
O     -0.449485502572     4.004694300152    -0.448244306466
C      0.199028242835     5.228249233349    -0.073716619093
H     -0.373875457362     5.712840644212     0.746181962660
H      1.232630311030     5.032580809569     0.292069377971
H      0.238619872157     5.934903564691    -0.933864020355
Pd     0.509623599422     0.027530635714    -1.260567516800
C      0.250321997004    -2.897714550206    -0.512772464249
O      1.117026152927    -1.953281765195    -0.997105016890
O      0.230300260300    -3.212695297816     0.689991874263
C     -0.728133421855    -3.527846354662    -1.550714394820
H     -1.186296749721    -4.386108167007    -1.040696020048
C     -0.018557260895    -4.040634593999    -2.786971513658
H     -0.732283922916    -4.622820615814    -3.406823923605
H      0.350195476763    -3.186015555704    -3.388543986337
H      0.831211259299    -4.695783007173    -2.503782717731
N     -1.830946955892    -2.693576737838    -2.020303140296
C     -2.084290147402    -1.456588614158    -1.816128229982
O     -1.420620863006    -0.490611271477    -1.109573677305
C     -3.359610740061    -0.971517712612    -2.371688359065
H     -3.146098198497    -0.139228470147    -3.060043129629
H     -3.865491461799    -1.794778826538    -2.910412688266
H     -3.988343431984    -0.631944010068    -1.530644900159
N      2.508120975290     0.510707202450    -1.385758251859
C      3.035576057971     1.621601790008    -0.783117005572
C      4.360775824535     1.951545285433    -0.983189936576
C      5.164385524448     1.171666299958    -1.785053436868
C      4.625779069991     0.043200324592    -2.345471705208
C      3.276412649732    -0.279552542486    -2.093021113426
H      2.412639368163     2.246179332223    -0.156869512655
H      4.759173318567     2.837563281170    -0.517900449373
H      6.205451910791     1.434364597540    -1.952595091358
H      5.206426452347    -0.627452084538    -2.946146360110
O      2.869994939786    -1.424031370348    -2.596184593216
H      2.052936138012    -1.823299150419    -2.048701571149

