# STO-3G

title

0 1
C      1.895459516759    -2.211465884278    -1.366506766990
C      0.886474869891    -2.495553575476    -2.310699547876
C      1.231188107397    -2.711893162485    -3.659734536709
C      2.579646634255    -2.643076545849    -4.067011934604
C      3.587377998640    -2.366712378198    -3.121834602602
C      3.245179216706    -2.155430323440    -1.769902661467
H      1.612363783866    -2.063031961574    -0.327765683089
H     -0.148166270341    -2.544025920714    -1.981167837283
H      0.454506652222    -2.938934627800    -4.386823881088
H      2.843300661987    -2.812345197513    -5.108945995246
H      4.629103951213    -2.327240537967    -3.433802720604
H      4.032335341775    -1.968545679393    -1.041550129528
C      1.538216060466     1.411086723794    -1.263837446379
H      1.791072201028     2.376237849864    -0.831421990280
H      2.369024719018     0.772283140998    -1.542231213536
C      0.253272158037     1.086246243401    -1.658444784625
H      0.069331273838     0.172216582952    -2.196145513044
C     -0.923039674512     1.943212597000    -1.451362129000
O     -0.903299706499     2.775188016720    -0.502852008005
O     -2.093914571914     1.697017636031    -2.185608275646
C     -3.204947526398     2.561470132288    -1.910186536948
H     -4.064311454897     2.268818462803    -2.551771555311
H     -3.524064297070     2.474789446093    -0.847650760969
H     -2.947949857989     3.621177447446    -2.135388342674
Pd     0.699772482122     0.185046761235     0.537787965679
C     -1.867855622916    -1.371216182871     0.600968579558
O     -0.948252793970    -0.729627358436    -0.168921025726
O     -2.381428749241    -2.433568799670     0.190692338663
C     -2.422528712861    -0.702225554482     1.909453786499
H     -3.182871079955    -1.413690051020     2.260637245958
C     -3.132585048767     0.600076485551     1.596576210791
H     -3.677493903755     0.952124050908     2.497722089717
H     -2.387150781632     1.368188328464     1.312522646481
H     -3.859804023090     0.456023875177     0.770683542576
N     -1.570673722870    -0.425712436858     3.063007815277
C     -0.296994119679    -0.541652520724     3.127995786272
O      0.581415814337    -0.966254679622     2.166389638981
C      0.307006318222    -0.219182019305     4.429098589154
H      1.401746469473    -0.346795502917     4.367666251180
H      0.044420908312     0.823929807214     4.672371805729
H     -0.123241161029    -0.904763547893     5.180234822813
N      2.425860822977     0.874654649333     1.460318768477
C      3.400749927491    -0.045867629381     1.740844505321
C      4.491686728016     0.325170222066     2.502128236475
C      4.600561324906     1.611359072663     2.989644566707
C      3.592659795113     2.499196374171     2.710155532498
C      2.495891417569     2.069626927158     1.940850484281
H      3.322365289067    -1.055006548358     1.353926003692
H      5.260746580575    -0.399756837936     2.715742694576
H      5.456700770376     1.909745503007     3.589276083785
H      3.601478002359     3.507465874129     3.075208422301
O      1.540959865552     2.986469759325     1.770426290322
H      0.737036505504     2.601941093161     1.337201090625

