# STO-3G

title

0 1
C     -0.759771231809    -0.865092505276     2.724275618270
C      0.159858088950    -1.930372548264     2.634943206048
C      1.109577517579    -2.134559815673     3.655387406045
C      1.140038528453    -1.275372335648     4.772755793846
C      0.212420754813    -0.217917749018     4.871600679516
C     -0.737308991847    -0.015978945459     3.850163655567
H     -1.494024437516    -0.707743824582     1.937681072201
H      0.140451982992    -2.588235010309     1.769612829338
H      1.814021851626    -2.960904858873     3.583354382891
H      1.867195207392    -1.438517467661     5.565407723897
H      0.220882542897     0.433171362218     5.743209445118
H     -1.464176883646     0.789439277347     3.933729771766
C      0.022960805235     2.360858094495     1.357259797048
H     -1.039162727562     2.518847705348     1.520375815154
H      0.610190498860     2.154085715102     2.240474398545
C      0.595297189494     2.692444115823     0.117962251411
H      1.664774675728     2.618211025793    -0.025237150637
C     -0.115009419510     3.418142868843    -0.953726951073
O     -1.181146296972     4.032992568633    -0.683112125329
O      0.571602060046     3.648108583183    -2.157382753541
C     -0.181055159396     4.314403333644    -3.180790989332
H      0.446276917769     4.419016946139    -4.091460754557
H     -1.087329311436     3.724280005818    -3.450458866776
H     -0.488875853356     5.331871423134    -2.849203868069
Pd     0.010751738500     0.534175876077     0.104081480242
C     -2.415430173687     0.752189224870    -1.382913363235
O     -1.924665036982     0.946582268047    -0.120407038747
O     -2.117669020836     1.455541620532    -2.368589940336
C     -3.348052873845    -0.491847558472    -1.497534706402
H     -3.729954935268    -0.510495501336    -2.527435556458
C     -4.526847313381    -0.424165204744    -0.552335330317
H     -5.205118559224    -1.281947034709    -0.742241541848
H     -4.162046777634    -0.483708073773     0.493130766451
H     -5.085276333098     0.523094650245    -0.699694363378
N     -2.695389503536    -1.775748791023    -1.254115465135
C     -1.463383588053    -2.037810946364    -1.071900332619
O     -0.385615496593    -1.186502031274    -0.996870046568
C     -1.131211601546    -3.463479643376    -0.939983095956
H     -1.693918262014    -3.859720204912    -0.077097820801
H     -1.461697126954    -3.966478898968    -1.865257436697
H     -0.044384889874    -3.593956706546    -0.794641291005
N      1.978406658937    -0.114743003540     0.370075885765
C      2.690976479604     0.152160858674     1.510789174987
C      4.017975790160    -0.211791095404     1.604397274267
C      4.643614906904    -0.859011166194     0.563818938337
C      3.904319387986    -1.167893028255    -0.545059771735
C      2.541298038720    -0.804948013806    -0.601417780678
H      2.222250851834     0.650119115222     2.346324391962
H      4.567566887417     0.016510803429     2.503045756679
H      5.691100917663    -1.141002398129     0.631602096615
H      4.320069470224    -1.705359134539    -1.374151208426
O      1.904735649314    -1.231373013896    -1.656375846533
H      0.804864541823    -1.285538469306    -1.511122863950

