# STO-3G

title

0 1
C      3.584057099386    -1.850767787776    -0.123643816288
C      4.137439580374    -3.040089686293    -0.642311896361
C      5.377227539505    -3.013968966060    -1.313091424320
C      6.071410310430    -1.795593148783    -1.460745333552
C      5.528026104045    -0.608363033509    -0.928189548424
C      4.287751344876    -0.636869015137    -0.259497566993
H      2.629499580457    -1.881696930225     0.395003918169
H      3.612885274977    -3.983183892358    -0.501323698853
H      5.806202491981    -3.934944476369    -1.702481038765
H      7.032526760810    -1.772882658896    -1.970259925072
H      6.067826724257     0.331354264835    -1.029612972848
H      3.862304913224     0.279340855687     0.143860119850
C      0.775180074655    -2.775638541254    -2.079943079439
H      0.324581644150    -3.272711324145    -1.226721565698
H      1.810573367075    -3.024293488236    -2.268476943154
C     -0.002591203155    -2.030272956020    -2.976487889215
H      0.438033676486    -1.612215959627    -3.871585583604
C     -1.476905351819    -1.983403874890    -2.949995648599
O     -2.064584744275    -1.216910454486    -3.757573583257
O     -2.194061561892    -2.892479840668    -2.152139625678
C     -3.620227826499    -2.744417913663    -2.161399551988
H     -4.072069215981    -3.505024120167    -1.489193168468
H     -3.913356909482    -1.735936066323    -1.791047678584
H     -4.028412773258    -2.898224286451    -3.186005755652
Pd     0.768596400424    -0.642978103250    -1.395682728868
C     -0.217255967808    -1.540383183173     1.083671181063
O     -0.673852329107    -1.262150515057    -0.162961682986
O      0.589076433240    -2.464994537641     1.346817653828
C     -0.707202090730    -0.532313299310     2.159153678144
H     -0.269467134344    -0.851492897158     3.114271515489
C     -2.213666136591    -0.528200740954     2.303479480809
H     -2.505468724857     0.140623870067     3.139877987937
H     -2.669523636876    -0.147017902079     1.366617654034
H     -2.584733237641    -1.553254682229     2.508947603098
N     -0.313379217525     0.843068146871     1.925858139015
C      0.305333647494     1.465859798104     1.009479822995
O      0.875218929359     1.043970072586    -0.178424271092
C      0.479442781796     2.905651218114     1.271287718165
H     -0.525885547145     3.356957152923     1.333845243202
H      0.992916377266     3.006421499521     2.243178873597
H      1.073273699946     3.392316407922     0.478383409052
N      2.170458445419     0.206157841458    -2.702369624176
C      3.101872935900    -0.524120095529    -3.395491068020
C      3.905110449658     0.084724123680    -4.337438064628
C      3.799643068756     1.434062111561    -4.583808558540
C      2.901335268628     2.158461675224    -3.849046477320
C      2.108444999219     1.509661555522    -2.878316920086
H      3.206595421263    -1.584601721214    -3.223855302957
H      4.624340975290    -0.506532046003    -4.880141005039
H      4.429670314594     1.916014060940    -5.326738005399
H      2.794855032648     3.218477722111    -3.965120630485
O      1.352645230056     2.299518761583    -2.166645886972
H      1.043462021420     1.835934510217    -1.203542820051

