# STO-3G

title

0 1
C     -2.276320771480    -1.376811423358    -1.180965947092
C     -2.447789101029    -0.438754995545    -2.221699777010
C     -3.745779125906    -0.080761814179    -2.638366199080
C     -4.873495560411    -0.660644829046    -2.021753360042
C     -4.703077915763    -1.607734085499    -0.990418735009
C     -3.405511259700    -1.966763635246    -0.573691337567
H     -1.274095934763    -1.660965662509    -0.868471526024
H     -1.574865623371     0.011638857305    -2.686842866967
H     -3.875074301683     0.639957239022    -3.443315847826
H     -5.874063867548    -0.389692558684    -2.352699862521
H     -5.572301544119    -2.071525488024    -0.528641015622
H     -3.273210890031    -2.713882718280     0.206677260949
C     -1.746048884305    -0.418657887292     2.177671962026
H     -2.827804481042    -0.394656715781     2.116293488108
H     -1.261416393711    -1.375173531813     2.021945811387
C     -0.996773587233     0.652352780849     2.682792017660
H      0.051850828880     0.512375443948     2.902794332070
C     -1.574730402869     1.918594833509     3.166938931454
O     -2.825163768072     2.046384899357     3.253691455308
O     -0.704672811002     2.976705245879     3.474034437107
C     -1.331245462851     4.229765445375     3.783208405425
H     -0.549476514142     4.989993188081     3.998274914963
H     -1.938243716187     4.591267087493     2.921258887835
H     -1.982967642597     4.137059929963     4.681645485995
Pd    -0.731302818301     0.621271752396     0.449661014215
C      1.604424831790     0.875750288512    -1.451526652942
O      0.311636640590     1.323228427912    -1.200197769003
O      1.905761052455     0.352959648995    -2.529632181275
C      2.574835054592     1.095046616875    -0.246604694619
H      2.118847681161     1.864686507160     0.398534456213
C      3.930293447192     1.582944260177    -0.696795805820
H      4.566808556737     1.783353441201     0.189914943465
H      4.415440315655     0.794307549072    -1.309854998014
H      3.830862951373     2.511638785488    -1.295528403613
N      2.815765447752    -0.137357294935     0.514901224259
C      1.886178799625    -0.929503936360     0.912270416225
O      0.539289082673    -0.900844003487     0.751567852605
C      2.363363207882    -2.109269131188     1.649306738073
H      3.038005302594    -2.668064612518     0.977326180224
H      2.922813523458    -1.751382284465     2.529934370723
H      1.510906913300    -2.741815618465     1.953591816670
N     -2.128431403074     2.109344484998     0.098485923765
C     -3.472081706045     1.885879060146     0.256890254271
C     -4.368160016218     2.925795234482     0.113761864022
C     -3.928720445029     4.194817387389    -0.187820441251
C     -2.586993752744     4.388533430814    -0.382547721202
C     -1.704592092091     3.294864846863    -0.266273002839
H     -3.834900380266     0.898086011699     0.504912735829
H     -5.419270592689     2.738670788139     0.258188251087
H     -4.631565827611     5.017150114006    -0.291161762147
H     -2.184118326765     5.340040251850    -0.666047110909
O     -0.455119175044     3.552299845499    -0.566022994552
H      0.061195879761     2.657504041590    -0.842748809193

