# STO-3G

title

0 1
C     -2.180501498782    -1.663766332411     0.372037714609
C     -1.821071639363    -1.658827978676     1.734926706565
C     -1.826227219946    -2.862659033356     2.467238764932
C     -2.194639526946    -4.069995986445     1.839278132132
C     -2.567341330581    -4.071679213453     0.479735513045
C     -2.562959610277    -2.867766096415    -0.252997668275
H     -2.173294771571    -0.735463385849    -0.193571664040
H     -1.528321802740    -0.728518776226     2.216388755429
H     -1.548419130618    -2.857820207788     3.519081139839
H     -2.202593932707    -4.997661496430     2.407193378040
H     -2.868146442991    -5.000010569317    -0.000700518281
H     -2.868446711191    -2.866645814704    -1.297324240354
C      0.059537858046    -1.333106505210    -2.309770245327
H     -0.167247754198    -2.354688206652    -2.028718818249
H     -0.754808561363    -0.737404139442    -2.705702064844
C      1.367831638934    -0.850435724227    -2.432508648593
H      1.524966036229     0.122739652700    -2.873959130760
C      2.581809299788    -1.656800924772    -2.215646391633
O      2.481520807588    -2.894066485164    -1.996081725770
O      3.828503964437    -1.010843739441    -2.217664301267
C      4.955389751648    -1.826844744702    -1.868443012826
H      5.879464551007    -1.209979551765    -1.896732207420
H      4.842164757747    -2.236025458092    -0.838165116842
H      5.075754062657    -2.666700184143    -2.589971769923
Pd     0.497358143209     0.026299876767    -0.541103167012
C     -1.360064792868     2.125323712005    -1.735529026269
O     -0.262277902229     1.332138133086    -1.868069644730
O     -1.894749009092     2.626671694106    -2.743069644974
C     -1.843453804055     2.367840783983    -0.269463233291
H     -1.949649839938     1.379074013720     0.210847632681
C     -3.169248393509     3.085356886246    -0.209804400097
H     -3.478833827769     3.207795765271     0.848551574035
H     -3.059056096639     4.091806008351    -0.666092735069
H     -3.945799715365     2.513377844760    -0.758020203569
N     -0.875078342336     3.216065700834     0.432275985830
C      0.177192855181     2.722152655364     0.961795523211
O      0.566681280625     1.407374368689     0.996473232028
C      1.083457834024     3.649263510273     1.652626152220
H      2.066863868304     3.606385653614     1.154831585836
H      0.671803198348     4.673984016210     1.584680402236
H      1.160360868180     3.341435719568     2.709628152331
N      1.454441025982    -1.334672341166     0.727668307670
C      1.192179135068    -2.681263605954     0.683862382672
C      1.920215736694    -3.558018098682     1.461404188389
C      2.919951467530    -3.101876520870     2.287521364137
C      3.144347496155    -1.753549053764     2.349594636516
C      2.358564643042    -0.878681554123     1.569368237466
H      0.420936891501    -3.067779220768     0.034083526699
H      1.710249664296    -4.613126926781     1.399049746734
H      3.502868056118    -3.793052798182     2.890392210704
H      3.881554701085    -1.329592513250     3.001486067262
O      2.588358132263     0.390432862041     1.768085255771
H      1.729570104044     1.011590828473     1.448978633048

