# STO-3G

title

0 1
C      1.188839697235     2.765454832068    -0.509914964462
C      2.585296406600     2.972469033851    -0.630428989505
C      3.116457668079     4.272437182492    -0.764881710971
C      2.263156857253     5.393170463200    -0.787530066646
C      0.872716445036     5.200349750037    -0.675276951630
C      0.340850648707     3.900671436948    -0.535577749274
H     -1.060199023827    -0.742044203964     1.212123310250
H      3.264235888464     2.121265550124    -0.630343080868
H      4.193681455451     4.405595070187    -0.855193536810
H      2.674098235005     6.395260391727    -0.891423136742
H      0.200864626144     6.057320791427    -0.693488686959
H     -0.738276108449     3.781065853550    -0.448952759952
C      0.502585841852    -0.073215971309     2.433939073699
H      0.544172264739     0.004544830814     3.524568870112
H      1.407225430779    -0.575960946379     2.085624406817
C      0.296855958649     1.228618252642     1.655907819856
H      1.181733811070     1.816910069103     1.902621691246
C     -0.900529351221     2.020502981835     1.991795142203
O     -1.868362343300     1.986608320629     1.185167980275
O     -0.761622818122     3.083889263290     2.899978332002
C     -1.925394913599     3.898972808232     3.094190001208
H     -1.700314397425     4.685982918938     3.846011321923
H     -2.220433913164     4.401330402289     2.145209255365
H     -2.776184126346     3.289222605134     3.474102413123
Pd     0.452723658556     0.909119575094    -0.434359496217
C      0.424967912287    -2.034173901768     0.273273599675
O      1.571569201135    -2.402704997407    -0.113106022901
O     -0.387621834273    -1.208097475272    -0.328039088942
C     -0.094096643205    -2.434451582127     1.701674669929
H      0.718746447019    -2.723925009129     2.369537954849
C     -1.160203704181    -3.511957259346     1.648239290614
H     -1.513320270709    -3.750326675673     2.672194899536
H     -2.011730205859    -3.168161427902     1.026109766218
H     -0.734409140449    -4.432800894802     1.198990066928
N     -0.687608041107    -1.079240525722     2.148134312672
C     -1.674494255716    -1.074458326399     3.236624688250
O     -1.348287045684    -1.005240255217     4.413070111847
C     -3.103611537876    -1.086968787740     2.856967811428
H     -3.566890018418    -1.975460015647     3.316220760975
H     -3.555858050378    -0.165773843924     3.259950708903
H     -3.212293582597    -1.107641460081     1.758929951530
N      0.890257632035     0.632668415088    -2.510926859675
C      0.343553341824     1.570632166414    -3.348012779513
C      0.754652270341     1.652381552013    -4.662264111071
C      1.713534352444     0.792368924916    -5.147274357037
C      2.234363702481    -0.143545818755    -4.294390810944
C      1.778744676169    -0.201194739302    -2.958537957963
H     -0.409544063651     2.254359649400    -2.974036038713
H      0.322896780789     2.398919795744    -5.308329216313
H      2.045614913180     0.852112055601    -6.180317082090
H      2.978340055061    -0.847694783161    -4.610260553231
O      2.373473380959    -1.158316477986    -2.259928305222
H      2.004538711036    -1.506528876921    -1.382126274828

