# STO-3G

title

0 1
C      0.004008855473     3.798473715782    -0.114472398800
C      1.207905970318     4.538458056354    -0.001381383897
C      1.686416622295     5.280621720988    -1.099014387717
C      0.962079449648     5.286273576849    -2.308392005969
C     -0.237105732514     4.548726602698    -2.429510282809
C     -0.719211728121     3.812297582162    -1.334585238897
H      0.192260261052    -0.839725540011    -0.474621690787
H      1.742687841976     4.558433927743     0.945716122809
H      2.602849492592     5.857893272643    -1.007101877053
H      1.322224904157     5.871636842083    -3.151681596721
H     -0.793090114766     4.563565465294    -3.363772252048
H     -1.653467881894     3.261583169471    -1.411467521441
C     -1.511822091662     1.419876198969     2.342767790778
H     -1.983865237864     1.375443647865     3.323828584270
H     -2.132619644503     1.067489283564     1.521836907115
C     -0.230949068157     1.795158685716     2.162563757948
H     -0.458750239273     3.380881834372     0.792603263222
C      0.731825585500     2.144658496377     3.225692123039
O      1.735536609505     2.831432951865     2.895466089964
O      0.410554897652     1.917413924995     4.575712114756
C      1.443166443723     2.224982657407     5.521355383767
H      1.084286733420     1.987214664390     6.545598704480
H      2.352001247260     1.612396236045     5.322456659013
H      1.705755080367     3.306328583843     5.485602700802
Pd     0.591873697589     1.544098177074     0.340297602060
C      0.559841687868    -1.213129007423     1.905046915566
O      0.587162659889    -0.495190636965     0.761935373665
O      1.184669382282    -0.919815177276     2.936952489439
C     -0.358518424541    -2.476471874514     1.807569629777
H     -0.955752178097    -2.484596653174     2.725178649879
C      0.444232939961    -3.756152328039     1.727048823147
H     -0.242128106229    -4.627104727774     1.681890825801
H      1.080974992469    -3.742672715652     0.818258281750
H      1.091764068726    -3.853735789685     2.623582890948
N     -1.262896937259    -2.432994477610     0.665136860284
C     -2.471985314366    -1.814337468442     0.740999199636
O     -2.950628875335    -1.293992235450     1.775916139921
C     -3.239831419482    -1.775033223842    -0.520970716316
H     -3.424074068653    -2.812496109017    -0.847252086220
H     -4.197389440137    -1.258494295978    -0.331567377681
H     -2.648704406961    -1.219938347057    -1.272813953088
N      1.225039804026     1.021164575240    -1.712913724933
C      1.947984198821     1.887384942706    -2.487569272942
C      2.091784903502     1.655226043271    -3.842000897207
C      1.523576069347     0.543722417639    -4.425407873020
C      0.828007366662    -0.324973322103    -3.627307530802
C      0.714476803134    -0.053638099225    -2.245143196265
H      2.409271999468     2.755473930716    -2.036880262462
H      2.656750524027     2.350141183083    -4.440360543324
H      1.635314780651     0.354617423182    -5.489545145149
H      0.380795201985    -1.220492204014    -4.005656723840
O      0.054945789790    -0.963290527937    -1.546522164328
H     -0.891842775885    -2.633663700709    -0.255986571131

