# STO-3G

title

0 1
C     -0.102395055433     2.434551042081    -1.294747720292
C      0.775601561099     3.359656640971    -0.667558264057
C      0.964299586437     4.664103923137    -1.176771355524
C      0.275660210728     5.080855558077    -2.330917469198
C     -0.608869500167     4.185465370877    -2.966215105396
C     -0.796500057888     2.885843984687    -2.452467795510
H     -1.497812100765     2.812804248959     0.513229453416
H      1.327432822419     3.070107273166     0.226000913188
H      1.644257731879     5.347006440516    -0.669459645149
H      0.418781067545     6.085086125710    -2.724446331488
H     -1.155091195830     4.500052275310    -3.854423741862
H     -1.492256141011     2.217077396426    -2.957763295699
C      1.808048740995     0.400413699710     1.735864563777
H      2.193102264384     1.277919765738     1.224435062341
H      2.090603304645    -0.559871788123     1.316297092357
C      0.990688813838     0.460364189593     2.811064653919
H      0.609781363052    -0.455239505066     3.242557892910
C      0.499298586634     1.707387792878     3.414822092638
O     -0.407402928446     1.638646397699     4.287189310795
O      0.926575147293     2.943745269689     2.895619961465
C      0.230282464677     4.100543678865     3.379557301945
H      0.644785262141     5.009919478363     2.894576595465
H     -0.853515447307     4.043094072120     3.127385650789
H      0.349927495959     4.204274165446     4.481610370730
Pd    -0.352152507079     0.495760194932    -0.630377162372
C      1.966724109168    -3.668770810969     1.860752980923
O      1.356764073245    -2.849972902183     2.479536062084
O      2.591771950698    -4.495257148795     1.270563241761
C     -1.531547846299    -0.927825098253     0.658125264095
H     -1.258675364017    -1.391661130981     1.613032956420
C     -2.619269577362    -1.651184497371    -0.076259161020
H     -3.516075222712    -1.722835838731     0.572844342784
H     -2.887812721078    -1.098172419119    -0.999417216157
H     -2.277972973223    -2.673337231582    -0.340145304396
N     -1.802035686685     0.475447602772     0.711492196058
C     -2.358981277713     1.354903709658     1.447545215059
O     -2.156193067817     2.672837430193     1.249419660937
C     -3.236538646837     0.975046244314     2.556374955362
H     -4.076180529059     0.388266109121     2.150314751722
H     -2.642822994031     0.383479960456     3.274405126533
H     -3.608115608868     1.891549329710     3.050576025985
N      1.245925151097    -0.311101256179    -1.707683731080
C      1.956715109585     0.305097924116    -2.705910928892
C      3.033437310439    -0.339713786871    -3.280372788672
C      3.407414369768    -1.598299725029    -2.857287797063
C      2.675889420071    -2.190370115746    -1.861654285291
C      1.583534524182    -1.501943588654    -1.306566466679
H      1.677822375042     1.294752603707    -3.046842848445
H      3.591467854254     0.151762521762    -4.061388686455
H      4.261291810844    -2.105945956666    -3.298893032410
H      2.920662980536    -3.162306344745    -1.469823529480
O      0.952693787545    -2.153063541684    -0.333941035224
H      0.107276882507    -1.628773754026    -0.001094987268

