# STO-3G

title

0 1
C      0.450242497343     2.293458596356    -1.062380429698
C      0.761969721982     3.358191648461    -0.162897572084
C      0.730152504104     4.716720502021    -0.557854314695
C      0.377065361472     5.060917877158    -1.873913438958
C      0.073929212598     4.034776223259    -2.794141305163
C      0.115729690333     2.685428433978    -2.393702977782
H     -1.095948171774     2.915963659886     0.709325047378
H      1.089084571636     3.131756920437     0.851654962373
H      0.985995597087     5.493103180480     0.161352826687
H      0.347732156447     6.103674032604    -2.182023750965
H     -0.188841199442     4.287893274299    -3.820174172687
H     -0.112103308251     1.916201556333    -3.130791786944
C      2.095317640953     0.676996545809     1.952286836110
H      2.601372490012     1.632688073906     1.835679330580
H      2.487569580048    -0.139836364406     1.355213307981
C      1.019473650874     0.490160690751     2.748610866850
H      0.546991829899    -0.480668541177     2.781826556853
C      0.377778207816     1.537768676763     3.556564551612
O     -0.680681866797     1.255826402859     4.181188991341
O      0.883941764413     2.850663173066     3.524752099034
C      0.063846027281     3.850790067175     4.144189486608
H      0.559484050372     4.840837012627     4.054478311570
H     -0.927192625519     3.914524767331     3.638420987213
H     -0.083506103508     3.630052496111     5.225541775409
Pd    -0.174884275858     0.301358014575    -0.502839717629
C      1.167609660149    -3.343013537792     0.839878885906
O      1.473860656314    -2.529638744911     1.654854877440
O      0.844240951512    -4.145525072785     0.016390026031
C     -1.743891672347    -0.812018313923     0.487389730101
H     -1.603462602269    -1.437379683392     1.371625398227
C     -2.805613831111    -1.264590251327    -0.465613039941
H     -3.797023553724    -1.187064956380     0.024885793324
H     -2.797584228361    -0.623260343018    -1.369686134882
H     -2.619254127520    -2.319252883242    -0.753627709693
N     -1.760278575962     0.589317615122     0.666241626049
C     -2.287338436538     1.512018380976     1.371502578319
O     -1.864553853000     2.788795742346     1.333312688876
C     -3.399997860552     1.217564301924     2.278383392947
H     -4.232787120395     0.808054488049     1.684747394105
H     -3.041231370988     0.488660636201     3.025361273886
H     -3.707623397994     2.149686440085     2.786401530334
N      1.240886093365    -0.787172884004    -1.617778489033
C      0.914336313779    -1.970560990222    -2.227558114452
C      1.861684497208    -2.651392047795    -2.963668123541
C      3.148416179852    -2.169909831971    -3.071278359251
C      3.449769946540    -0.982792597201    -2.456245887068
C      2.447956779907    -0.311487736701    -1.730745315194
H     -0.087679957705    -2.371944357072    -2.128542612743
H      1.600445227070    -3.594297976788    -3.417260889619
H      3.903635004477    -2.717439288546    -3.629204284685
H      4.429584628605    -0.549825527580    -2.500782637346
O      2.822274710415     0.832580916350    -1.181522089715
H      1.979402618945     1.354817562994    -0.895063968766

