# STO-3G

title

0 1
C      2.769099990142     1.162906825045     1.741436191895
C      2.681183434434     1.216219169387     3.166385768286
C      3.195569709133     2.301330324710     3.914114814882
C      3.817174216600     3.379047650575     3.257483667492
C      3.933665979094     3.354720784212     1.851635363723
C      3.422893004785     2.267244827934     1.116091856677
H      0.691215377469     1.869994041199     2.853052551269
H      2.244092549634     0.376135045057     3.705190668497
H      3.113585859648     2.297609558373     4.999976347009
H      4.212271347460     4.216579334054     3.828308676438
H      4.424909010667     4.177505571684     1.334531608130
H      3.538612223261     2.269876917907     0.032706987115
C      1.407251604786    -2.159752379359     3.234683500198
H      1.728430851017    -2.299262423511     4.264457189032
H      2.186991023330    -2.209360076145     2.480180809541
C      0.127752564609    -1.894488242000     2.884059933245
H     -0.108203103605    -1.739105885586     1.841836013651
C     -0.993555799755    -1.740132147108     3.825816923388
O     -0.804809470392    -1.885549988815     5.063783937412
O     -2.240450624909    -1.327976509537     3.319499607437
C     -3.277847605194    -1.144414205562     4.293528379896
H     -4.214791245969    -0.833573631932     3.783906025455
H     -3.479620696025    -2.094012707997     4.840061831684
H     -2.997561018787    -0.351243940101     5.024049339992
Pd     1.354110650714     0.080659265205     0.486822087009
C     -0.487990455598    -4.699289628614    -0.601081078257
O     -0.304106824069    -3.578149182266    -0.231671941706
O     -0.671659111334    -5.814691923408    -0.981335271466
C     -0.673997239537     0.109770933117    -0.202439916147
H     -1.379434434406    -0.705233912279    -0.027643810864
C     -0.823788576518     0.823492940023    -1.507905680428
H     -1.830076194181     1.287181132617    -1.556054486507
H     -0.056425184059     1.619459523995    -1.593894651211
H     -0.710023853646     0.101804337857    -2.341774809400
N     -0.390052154795     0.991821651464     0.861131374695
C     -0.957644540821     1.594687064476     1.832833188440
O     -0.283691790189     2.082207219925     2.887928137506
C     -2.409846356427     1.794952622017     1.835707496314
H     -2.674319769565     2.386258262119     0.943743607523
H     -2.889990973822     0.802640429219     1.811217491642
H     -2.698179257900     2.335180770099     2.756032603670
N      2.532492709723    -1.429628534466    -0.367931754578
C      2.068561511213    -2.134729585664    -1.447489920284
C      2.823583156803    -3.160258751457    -1.977247827027
C      4.033388372314    -3.505547402061    -1.415485157970
C      4.473281089533    -2.789158808548    -0.332713761321
C      3.676236996582    -1.743886929989     0.171113221446
H      1.112636160325    -1.880994390570    -1.890418902326
H      2.440719197152    -3.720986083898    -2.815574050611
H      4.620055247601    -4.327675798042    -1.817474233352
H      5.400365573543    -3.011657858313     0.158046986620
O      4.164597919239    -1.129813312423     1.231520931989
H      3.559058669133    -0.300990807276     1.469490094940

