# STO-3G

title

0 1
C     -0.249295702036     2.232143940383    -2.130688110887
C      0.580301841555     3.311935645293    -1.722304766788
C      0.814186252311     4.419660846876    -2.567429849525
C      0.223663005708     4.475608393230    -3.843941434890
C     -0.610662917493     3.420682868517    -4.265813715846
C     -0.845881911371     2.317936647327    -3.418657520340
H     -1.861063280803     3.016567340429    -0.676235465624
H      1.051000595483     3.296952505002    -0.740254781652
H      1.450902186229     5.234286980780    -2.225261226643
H      0.402304477643     5.328875665583    -4.495027305313
H     -1.081654210326     3.459218214686    -5.246998617049
H     -1.500938273073     1.519312947373    -3.764745713703
C      2.062485551857     1.614649115181     1.677481709716
H      2.919189980789     1.721757421968     2.336349315132
H      2.265153291431     1.586874623309     0.608721754190
C      0.792925153685     1.485706819512     2.118154712707
H      0.001534049453     1.359081651689     1.392443614465
C      0.372431579921     1.444011941318     3.526261315240
O     -0.858327000578     1.304881776089     3.770714730505
O      1.289741384305     1.763073393798     4.543774335717
C      0.820766232001     1.567200352289     5.884197075212
H      1.631481807451     1.826733126662     6.598020657296
H     -0.055617227124     2.219578930187     6.098341313952
H      0.542918922396     0.500794232084     6.049190556341
Pd    -0.516929448364     0.558882427907    -0.954887367397
C      2.056360744686    -2.244870770448     2.994805074414
O      1.232318769828    -1.474404432325     3.381721320930
O      2.898650226278    -3.014249862928     2.642237868761
C     -1.792839487376    -0.506553612194     0.573060209868
H     -1.672171888105    -0.622194445988     1.656827975560
C     -2.649309835769    -1.559787467261    -0.056320245974
H     -3.663185025247    -1.522727970048     0.392910468918
H     -2.734681504053    -1.378711287594    -1.146907815736
H     -2.205865513025    -2.560776687860     0.123355379779
N     -2.160243228472     0.798520063998     0.119013859425
C     -2.778479937096     1.831992835782     0.550305597847
O     -2.583924659467     3.050894133020     0.010433847112
C     -3.740376136986     1.737056966169     1.650656317441
H     -4.528884439545     1.023963122064     1.359585360938
H     -3.201970976412     1.389605882617     2.549723130104
H     -4.174504660791     2.736488728657     1.837253209287
N      1.311427981634    -0.307760601512    -1.467174498305
C      2.102625419365     0.034751107128    -2.534449384376
C      3.325348639556    -0.580609594603    -2.708493831293
C      3.762961906572    -1.539346593578    -1.818707864729
C      2.946935161913    -1.867902705500    -0.769189844734
C      1.707653924332    -1.220120305284    -0.628065528443
H      1.773857090342     0.785600085221    -3.242616025212
H      3.945639869640    -0.302717627690    -3.545689965723
H      4.729587851022    -2.020520697246    -1.944841282086
H      3.231731127937    -2.594185043891    -0.027280509424
O      1.001606857510    -1.599888527494     0.430552606329
H      0.070879826587    -1.142205938795     0.458379805097

