# STO-3G

title

0 1
C      1.965369642404    -1.304946733451     0.327565246621
C      2.531018086231    -1.896655541561    -0.819831004270
C      3.875289249660    -2.319231742392    -0.803211570476
C      4.651519418771    -2.150979115676     0.361302565348
C      4.080378006754    -1.570704512212     1.512111183934
C      2.735355721844    -1.150818081651     1.497866595292
H      0.928212863821    -0.983923879647     0.315801828959
H      1.920705378713    -2.037839998944    -1.709660333245
H      4.312687887644    -2.778351113435    -1.687137765859
H      5.689650651961    -2.476151863845     0.374415488867
H      4.675992526346    -1.452461403123     2.414609311190
H      2.274958449300    -0.728804411333     2.387746998664
C      1.091331404330     1.450583365832    -1.564566588719
H      1.027794027393     2.013771395071    -2.491208124597
H      1.370880246169     0.406562382090    -1.643642218716
C      1.069973372145     2.070672486270    -0.315964533621
H      1.276756583480     1.504775454096     0.580068134078
C      0.984992085990     3.531922869819    -0.134584557774
O      0.719858017888     4.268636967035    -1.124810923516
O      1.193760416653     4.074751573243     1.144403186927
C      0.899676261148     5.470594039241     1.287307007267
H      1.089369427589     5.778697529253     2.337738889130
H      1.547429531654     6.083116146738     0.620273607582
H     -0.171368824461     5.671269028632     1.055877380628
Pd    -1.016227799734     1.138906003958    -0.901573874231
C     -2.087524748032    -1.005028005830    -1.142751491314
O     -2.870323177431     0.049519922641    -1.162926829348
O     -0.902917846127    -0.869355451060    -1.721444175738
C     -2.295775813427    -2.136324875019    -0.115811269048
H     -1.744008864293    -3.038961175092    -0.425830692531
C     -3.748328421460    -2.464860779532     0.137974849185
H     -3.820723697167    -3.228733129973     0.938159697454
H     -4.281893331273    -1.548747888196     0.472490713638
H     -4.221606382482    -2.849963490026    -0.788136174781
N     -1.778086253052    -1.402196438300     1.033567057179
C     -0.950271729175    -1.747454109739     1.945371659610
O     -0.412503237321    -0.845683100969     2.787919092186
C     -0.508454645011    -3.139277033884     2.142749442313
H      0.170611984402    -3.180149691770     3.013868662166
H     -1.403398567421    -3.755796702005     2.328125828778
H      0.029459291930    -3.470293934469     1.237792325589
N     -1.725205589100     2.627502012070     0.242722490923
C     -2.547329159882     3.591973173879    -0.265454471731
C     -3.206716274119     4.447050145478     0.591324805123
C     -3.056325318405     4.329833938958     1.955804012490
C     -2.231258351228     3.352815457282     2.448056191124
C     -1.555891031250     2.476694109238     1.562186496335
H     -2.668937737544     3.689201383481    -1.337901606284
H     -3.851651123813     5.207555838768     0.184139772479
H     -3.580375466650     5.001864521320     2.629744805019
H     -2.071537792165     3.217749515898     3.497790874177
O     -0.793964321525     1.598565665266     2.075612994837
H     -0.635573528228     0.116310226394     2.529787521601

