# STO-3G

title

0 1
C      1.970724078784    -1.227100192928     0.422698826627
C      2.383328499583    -1.912122109841    -0.738208325557
C      3.674451816378    -2.473482403611    -0.801135551733
C      4.550372600313    -2.349768515460     0.296327485899
C      4.131710328615    -1.674180170379     1.460662976290
C      2.839548120120    -1.115892294800     1.526338362921
H      0.972516288503    -0.803838096045     0.476797949355
H      1.693281036259    -2.015467210275    -1.572947305521
H      3.993823053449    -3.004924690101    -1.694984082788
H      5.547605683603    -2.781990527982     0.247857293510
H      4.803668799861    -1.589527018982     2.311880894039
H      2.496625855170    -0.618516989542     2.430204059920
C      1.171638431909     1.508603032818    -1.524675257987
H      1.113653362527     2.046434969769    -2.466656153090
H      1.478032235519     0.469849062284    -1.570651408689
C      1.106097615854     2.158464943357    -0.293899767191
H      1.301165417470     1.619555740971     0.621214611919
C      0.973877134368     3.620034332290    -0.148720334435
O      0.700887170329     4.324807356878    -1.159757846468
O      1.135631123213     4.196996113894     1.122188054385
C      0.792165481765     5.584836559404     1.227939426818
H      0.949166001148     5.921779285171     2.274920129692
H      1.433029235582     6.204475182926     0.560817012913
H     -0.279862920698     5.744069487996     0.970507731979
Pd    -0.950018713734     1.167051500593    -0.906238709476
C     -2.001230006523    -0.987274656042    -1.154879773502
O     -2.783629517318     0.070003734000    -1.171048360274
O     -0.816452676199    -0.847865507646    -1.728227557653
C     -2.224223740271    -2.126950861594    -0.140864316156
H     -1.657257175446    -3.021931713065    -0.445904792959
C     -3.679836745153    -2.470512752025     0.073018406618
H     -3.765612973520    -3.242094531439     0.864427028870
H     -4.229749379086    -1.562050740121     0.401837099927
H     -4.126048703391    -2.851543557784    -0.868100137965
N     -1.742137513607    -1.400815194991     1.028260722144
C     -0.937700522753    -1.750114529490     1.959287340571
O     -0.430354269705    -0.853840015739     2.826505561435
C     -0.488074586347    -3.140021288360     2.151927119461
H      0.166126231996    -3.185434203709     3.041610652588
H     -1.381547108008    -3.767815887751     2.302970257054
H      0.079726741465    -3.452927243993     1.258723296902
N     -1.697095891664     2.626957917672     0.251801718833
C     -2.544537868558     3.573877818545    -0.247630222751
C     -3.232467909474     4.397675891820     0.617319454578
C     -3.086198269600     4.265008099949     1.980922709181
C     -2.237067058301     3.304125228925     2.464134637258
C     -1.532246145854     2.460527045567     1.569730101988
H     -2.662569132471     3.683191864360    -1.319321216979
H     -3.897010292419     5.144957267900     0.217259906082
H     -3.632994530843     4.911952141167     2.661302581334
H     -2.080490998414     3.157735760798     3.512790519448
O     -0.750972413341     1.593075845896     2.074136067090
H     -0.636613778724     0.109157667508     2.561359634451

