# STO-3G

title

0 1
C      1.476928134198     1.510613525658     0.827755974876
C      0.885565756938     0.937754751975     1.971368366424
C      0.679206776044     1.721259838995     3.124443597731
C      1.061453092021     3.078284718884     3.133739024373
C      1.650789418455     3.650763390959     1.988475270945
C      1.860004855198     2.866623416027     0.836044051760
H      1.621258201784     0.900347966039    -0.057155240930
H      0.588372657225    -0.107137268078     1.946121279798
H      0.225892119042     1.277357125700     4.008187258799
H      0.904312552560     3.683061259262     4.024455523987
H      1.945273756950     4.698308963931     1.992475171305
H      2.311979844307     3.301949833685    -0.052487444885
C     -0.060304317042     1.591965225001    -3.036465960800
H     -0.114866072460     2.590397362936    -3.462944275104
H      0.443136283642     0.833937421525    -3.632654567845
C     -0.575766835823     1.276124504202    -1.822627035605
H     -0.433897328254     0.282209529449    -1.419390570648
C     -1.281837985617     2.219546024365    -0.938316684257
O     -1.398001203191     3.429789482624    -1.274470001701
O     -1.866712401036     1.728080931258     0.240005997180
C     -2.352145563111     2.718919963381     1.155204747888
H     -2.765831486978     2.215067680353     2.054620134580
H     -1.523356046089     3.385964872741     1.485726881032
H     -3.159661004386     3.328245355983     0.690327028050
Pd     2.178202075400    -1.188131488271    -2.605503677923
C      1.721503602756    -1.957450508473    -0.692248465091
O      0.606256019109    -1.495351507753    -0.354378139269
O      2.626409497809    -2.717327151869    -0.316367970278
C     -1.998452500429    -2.220450802758    -1.435883523227
H     -2.090912762730    -1.275487442645    -0.896972409446
C     -2.572949264511    -3.464335930085    -0.830039309233
H     -3.608426119807    -3.602931587029    -1.197189674610
H     -1.952812675295    -4.334810977732    -1.124977471439
H     -2.568855950670    -3.372129606877     0.273874225125
N     -1.473463719457    -2.385535083048    -2.579247118774
C     -0.831665723994    -1.815388134374    -3.598437353019
O      0.413037175429    -1.615482968260    -3.696806479107
C     -1.661803578346    -1.524682674332    -4.781138467137
H     -1.272131026882    -2.123049210249    -5.621109009948
H     -2.709200129174    -1.808757322399    -4.570130522264
H     -1.595479539405    -0.445595628169    -4.996834310383
N      3.931045059162    -0.349331613766    -1.861832272051
C      4.982227678563    -1.124282929604    -1.439658601889
C      6.136453158364    -0.522574374518    -0.979779575066
C      6.237186082883     0.851219738805    -0.921390226457
C      5.167534340079     1.598191032623    -1.343156640381
C      4.012876840411     0.941689147584    -1.804678328231
H      4.916243107932    -2.205169023154    -1.486983081706
H      6.957608168944    -1.137694474354    -0.647634306942
H      7.139059006713     1.328809453554    -0.547041452365
H      5.173327636158     2.669908667617    -1.308626698918
O      3.016081912695     1.760610988453    -2.154579557132
H      2.189292644765     1.261254680780    -2.397080105820

