# STO-3G

title

0 1
C      0.089416890066     3.092150811583    -0.570116851491
C     -0.398382647203     4.249573612141     0.075481396747
C     -0.022761165810     5.532506384895    -0.364783190338
C      0.850203253680     5.675405144598    -1.460435222001
C      1.341428216273     4.526856501441    -2.112451407498
C      0.965569680447     3.246603055431    -1.668273168717
H     -3.608539635232    -0.343389363410     1.132887744062
H     -1.078273505963     4.146567085675     0.921330235897
H     -0.413154447135     6.413461773890     0.139926612923
H      1.137582686127     6.666004382091    -1.804993010724
H      2.006924450956     4.629695791833    -2.966588389061
H      1.341577901026     2.361061316762    -2.177938168462
C     -0.272682842584     1.697021441650    -0.071571962746
H     -1.272658282511     1.693560473547     0.380215119583
H     -0.294847227199     1.002158137634    -0.913662620786
C      0.801976365629     1.233664789935     0.929262101400
H      1.781937327125     1.147062400578     0.467458606848
C      0.876094238907     1.830407042409     2.281997101599
O     -0.148967948742     2.353529326916     2.796356581232
O      2.018534080667     1.558910690718     3.053174279575
C      2.004997782959     2.074135518193     4.391929160608
H      2.959130419105     1.812204487758     4.897892752689
H      1.906761004150     3.183710493588     4.387801024698
H      1.167597263556     1.630636357967     4.977668544081
Pd     0.622481058896    -0.813208785773     1.227160973651
C     -2.300604213466    -1.094890000582    -1.009984301372
O     -1.183796302901    -1.108499691414    -1.746003654211
O     -3.378020829440    -0.588370295410    -1.385416974027
C     -2.235073666033    -1.746460243853     0.412751916380
H     -1.213057881282    -2.037922122466     0.663669452884
C     -3.126232508374    -2.964574715400     0.516374136013
H     -3.062411865882    -3.388213025902     1.540059583095
H     -4.179318289324    -2.669613602261     0.319983741312
H     -2.815726992312    -3.733795415489    -0.220315670588
N     -2.718102965714    -0.761578682754     1.391876382175
C     -2.045404472810    -0.288208919798     2.454633151087
O     -0.841585613859    -0.555370882706     2.775993007322
C     -2.802560702456     0.623549366221     3.329957667074
H     -3.692500885265     0.087285838874     3.699567937582
H     -2.155844573161     0.939054303160     4.167775365230
H     -3.095332007477     1.506975269852     2.734937008962
N      3.046687220489    -0.030110172847    -0.930407054460
C      4.101950447254     0.389039802799    -1.694982589093
C      4.188171108527     0.008121392469    -3.021542044664
C      3.219728426391    -0.797117424218    -3.583332187803
C      2.179197100530    -1.212362740396    -2.792178558189
C      2.142437283652    -0.794535152144    -1.440103506491
H      4.861258148405     1.028595855998    -1.260269865888
H      5.018153684495     0.350159238690    -3.617709939347
H      3.280375739341    -1.095267142928    -4.626763019079
H      1.396888245643    -1.837460524987    -3.172626063461
O      1.083935013029    -1.230697472165    -0.745396995103
H     -0.216687116454    -1.255401823977    -1.318079965313

