# STO-3G

title

0 1
C      0.262315262638     3.964269345822     0.432586799063
C      1.386414128602     4.784721293911     0.189337710383
C      1.336422781449     5.815815015813    -0.766332908235
C      0.153811962312     6.044636874508    -1.496740608435
C     -0.973169126164     5.235017467531    -1.259857038619
C     -0.919105440310     4.204674147657    -0.301771049455
H     -4.155965966526    -1.058135343011     1.665448397780
H      2.303746613660     4.617529819461     0.752458001636
H      2.210750360011     6.440502913884    -0.937077987749
H      0.110941373751     6.842081513989    -2.235360398225
H     -1.891266221046     5.403770299449    -1.819057417890
H     -1.791224738184     3.580773573672    -0.122577639716
C      0.344197649059     2.839555859330     1.450241354047
H      0.947550926936     3.167973792003     2.312108216446
H     -0.647484430350     2.603500603948     1.851408897969
C      0.981839618441     1.562962447104     0.871664783297
H      1.674515703292     1.745797240013     0.056403239630
C      1.493949955350     0.522380372856     1.789387585926
O      0.851695760672     0.265528493327     2.840813998036
O      2.562603072584    -0.287772655255     1.372974819992
C      2.899449020318    -1.381113927611     2.237882646131
H      3.757492184500    -1.939863925029     1.805624054252
H      3.196403498437    -1.012847816827     3.246068225501
H      2.042381989929    -2.085820850295     2.336695541583
Pd    -0.486196558381     0.628171828707    -0.239224052693
C     -1.446995434854    -1.806057306859     0.283569821505
O     -0.176831162907    -2.268105703487     0.376142801880
O     -2.112237452027    -1.691230425651    -0.773564079882
C     -2.053336648668    -1.453815055842     1.679117917578
H     -1.286085913530    -0.903869193590     2.227685319069
C     -2.413932683771    -2.689173711380     2.477865830887
H     -2.812499692135    -2.386940568548     3.468687756159
H     -3.191535618206    -3.267650794926     1.937572834187
H     -1.516981620927    -3.325126079347     2.628062688726
N     -3.253059403836    -0.617160830920     1.549053988706
C     -3.248944462212     0.666027648170     1.146871439229
O     -2.244983675786     1.342663186137     0.771058395266
C     -4.555807247595     1.350960219026     1.166042675954
H     -4.945040694420     1.310039738883     2.197699049930
H     -4.421066748845     2.399372452123     0.846698367750
H     -5.232917363809     0.822080347367     0.472343729755
N      2.242000542284     0.987888222867    -2.025319621669
C      3.327246503105     1.307218044805    -2.795105033292
C      4.130875244539     0.304779118332    -3.309205067780
C      3.844426146068    -1.020768609348    -3.056291039889
C      2.748150306448    -1.315427006906    -2.287019045619
C      1.962436761779    -0.249035442015    -1.786789211264
H      3.556584416134     2.347329463122    -2.995515459284
H      4.983627436777     0.567702945093    -3.912579761186
H      4.470350448676    -1.811792254491    -3.460329557524
H      2.465160103007    -2.322080197977    -2.061656376561
O      0.908115320719    -0.620998901754    -1.059608793225
H      0.443662589715    -1.813896627458    -0.349088072611

