# STO-3G

title

0 1
C     -0.126592826306     4.074555541162    -0.663596317055
C     -0.244957772282     4.891981408640     0.482835731231
C      0.365431143308     6.159124633206     0.532984136426
C      1.107239911017     6.629261701380    -0.568017317821
C      1.232166255338     5.822204923659    -1.716233240345
C      0.622056360985     4.555102586098    -1.761320013688
H     -2.754054780116    -1.187322712054     2.976290521045
H     -0.819072308201     4.534022241848     1.337688188181
H      0.259933433341     6.776780306386     1.422544825233
H      1.577524373685     7.609375905662    -0.532953855286
H      1.800203763397     6.180784115384    -2.571883571553
H      0.723601347369     3.936311543065    -2.650973091925
C     -0.745105900858     2.683978159613    -0.688682695751
H     -1.622980758155     2.634847467635    -0.038159336449
H     -1.082903895466     2.430775413660    -1.700733512093
C      0.296576340131     1.632989055719    -0.265706841445
H      1.125885772676     1.543679892709    -0.959954388643
C      0.773513680985     1.589891209293     1.133354062489
O     -0.064468540875     1.712236717696     2.065993326859
O      2.086689663797     1.160562980310     1.388487231268
C      2.441508104013     1.009155262637     2.769423990840
H      3.499412793806     0.676897532152     2.841595011128
H      2.342149731130     1.976764472966     3.311603168729
H      1.801986165573     0.239998867472     3.259374651551
Pd    -0.642572054852    -0.137348135898    -0.658892089684
C     -1.404766238758    -2.498758661393     0.336374532620
O     -0.243508657929    -2.526210837701     1.024992565563
O     -1.496360559389    -2.529715549002    -0.920138201039
C     -2.642018801216    -2.423485890148     1.270889792182
H     -2.496701359492    -3.181226900963     2.049390826621
C     -3.946371906623    -2.694374761110     0.551314930434
H     -4.785589565717    -2.657424451662     1.276522380200
H     -4.112832344514    -1.922913534569    -0.228938072822
H     -3.921342664505    -3.696553460007     0.075637395305
N     -2.760301720776    -1.127304898290     1.965866558121
C     -2.811638528698     0.104430452568     1.414831363378
O     -2.643759460747     0.384166803054     0.188688883703
C     -3.160631003963     1.197949970673     2.344922049759
H     -2.379703897386     1.247071458987     3.123622330952
H     -3.199869747457     2.149536596020     1.789202361425
H     -4.143400886938     0.971418317706     2.792875281638
N      2.387127684251    -0.061045731631    -2.033874654000
C      3.564767970865     0.060309782915    -2.720965227992
C      4.618190842861    -0.794359058332    -2.449747315196
C      4.494768491875    -1.772824523639    -1.485895753471
C      3.305964346077    -1.875643112522    -0.811131197132
C      2.261133457139    -0.973893557508    -1.129359963790
H      3.668217011410     0.828513951540    -3.478279085976
H      5.540316416516    -0.688292888942    -2.996452513655
H      5.319883723938    -2.445086785225    -1.266706870567
H      3.147170430695    -2.608740399304    -0.048328747844
O      1.145075482868    -1.143784476693    -0.423676369444
H      0.556952542948    -2.115724315261     0.442313308443

