# STO-3G

title

0 1
C      0.288659302252     0.686256019446     2.195846428784
C      0.395213472541    -0.604423120696     2.754511297588
C     -0.372120850966    -0.956793628799     3.882263609337
C     -1.247216658956    -0.014434155483     4.460265194233
C     -1.349961234885     1.278947091052     3.910027218887
C     -0.582117476244     1.627503803738     2.780599303818
H      0.894502901069     0.942380511489     1.330269665133
H      1.075390759896    -1.328587277857     2.308846226717
H     -0.285761091852    -1.953902126949     4.308998908784
H     -1.839013713629    -0.283870182122     5.332314836221
H     -2.021472338481     2.008765788482     4.356512954355
H     -0.662619406565     2.625807422839     2.354713506711
C      1.624425094277     1.636271811286    -1.798423023292
H      2.124197920486     1.727398298254    -0.838059364769
H      2.130397872848     1.008783546806    -2.527752709567
C      0.467962571184     2.306754949998    -2.136315278481
H      0.039846875888     2.193200817596    -3.120932919567
C     -0.224523352777     3.279826097955    -1.272778723130
O      0.118103092956     3.400650256273    -0.064936286072
O     -1.206790545421     4.110200452655    -1.839584826132
C     -1.936997515935     4.932291758038    -0.919488292537
H     -2.689565428561     5.528470855645    -1.478665888001
H     -2.477891586464     4.303190060702    -0.176325900248
H     -1.256262261885     5.635909903878    -0.389155396838
Pd    -0.022925438780     0.070863299332    -1.248970184903
C     -2.892853375606     0.236394987803    -1.335872184858
O     -1.781334432402     0.943174193001    -1.646515230238
O     -4.042211044583     0.649816385501    -1.564721871607
C     -2.631011526567    -1.131139658693    -0.636307915951
H     -3.376965982954    -1.831901780265    -1.033087782345
C     -2.814563574620    -1.015266040220     0.861676149950
H     -2.592092982595    -1.980283341767     1.358302845813
H     -2.124084419420    -0.247483385898     1.261989651743
H     -3.857327842612    -0.716974400592     1.097977521641
N     -1.241286626161    -1.553227881185    -0.892529534066
C     -0.801965381326    -2.775742734582    -1.029662238080
O      0.462890119450    -3.079709981688    -1.229369376092
C     -1.723501615846    -3.927759173563    -0.999948120330
H     -2.251850891104    -3.936497182378    -0.032569692045
H     -2.424722539696    -3.834364382737    -1.846089716538
H     -1.143407237978    -4.863268988980    -1.109624910235
N      2.986355392506     0.243182418914     0.501880478639
C      4.043489533939     0.346000833888     1.363787725436
C      4.863125200205    -0.745988522741     1.582298121524
C      4.625562039683    -1.938630216298     0.933074575829
C      3.555554866378    -2.013263316545     0.078091972899
C      2.741978540466    -0.865779509494    -0.100757706037
H      4.234647066899     1.284065433161     1.871752228043
H      5.693703477358    -0.655968850643     2.262632538855
H      5.270242567984    -2.798236959156     1.095815152522
H      3.326685622496    -2.912047784706    -0.457146546907
O      1.713163077182    -1.040725370616    -0.946082117005
H      1.138422124867    -2.232990226315    -1.142302518196

