# STO-3G

title

0 1
C      0.545411021521     3.425321292017     0.070231170010
C      0.795194803395     3.296943324390    -1.318070374507
C      0.333339368531     4.258354110067    -2.233314396110
C     -0.387024085608     5.378570987707    -1.778433945150
C     -0.626853263932     5.532472024984    -0.397048441468
C     -0.160053950994     4.573254957872     0.515671998922
H     -1.874915790384     0.713325290630     2.907462465363
H      1.350929533365     2.432544740036    -1.675287529419
H      0.535532281946     4.134169501484    -3.294629044155
H     -0.744619613494     6.125281750392    -2.483396044779
H     -1.162460944629     6.407697483528    -0.035366372859
H     -0.321090589898     4.733136232891     1.579369791654
C      1.061417648955     2.382423470985     0.982034802059
H     -0.863730201667     1.044269603286    -2.097182274229
H      1.716481492403     1.648571983701     0.510084801511
C      0.778588865521     2.269392298826     2.305685309078
H      0.083665591250     2.946601065879     2.787394443347
C      1.380799238417     1.270209364199     3.198510997097
O      0.938722213669     1.168185733216     4.376242464942
O      2.552281753540     0.594846903957     2.804879475075
C      3.044815367700    -0.391325017978     3.720416374216
H      3.954965016025    -0.862870292402     3.292772411950
H      3.315366780626     0.074105570347     4.694872849216
H      2.284231978520    -1.187501914032     3.883754169708
Pd    -0.871654292863    -0.299531670789    -1.385547577996
C     -0.561824226335    -1.535126848676     1.051704053682
O      0.571853079368    -0.935973519896     1.306197966206
O     -0.831329140041    -2.186976490060    -0.016743505930
C     -1.642706034167    -1.244753592136     2.130555230438
H     -1.183893579958    -1.399962387951     3.112624220832
C     -2.884630549349    -2.101220012336     2.008583565667
H     -3.597291440018    -1.834153411436     2.816201376244
H     -3.371199981545    -1.924266762506     1.027917143908
H     -2.617345609947    -3.174123144335     2.098083213179
N     -2.042725870655     0.178636382067     2.063370799064
C     -2.469847497128     0.835248876749     0.971979794081
O     -2.516280839220     0.370803316291    -0.205508999826
C     -2.949197760710     2.212234972220     1.192173981934
H     -2.113362976159     2.797019568793     1.609145236564
H     -3.270227120849     2.647182339982     0.230354948908
H     -3.789491410173     2.175653441027     1.906792635274
N      0.839406279989    -0.679536972243    -2.384865333285
C      0.789992662190    -0.856348339227    -3.741568905528
C      1.953746439764    -1.001443255356    -4.462861475820
C      3.175954193235    -0.985743375561    -3.829442017822
C      3.200788882524    -0.825818306773    -2.470309831202
C      1.992812878841    -0.683584459501    -1.750761940394
H     -0.167032604632    -0.866600741187    -4.250247002818
H      1.906066178518    -1.133583536935    -5.531858188685
H      4.098131026888    -1.100881427995    -4.393290705441
H      4.120239888722    -0.809758570356    -1.917862083803
O      2.149960512204    -0.544801793562    -0.468264439896
H      1.365955085045    -0.748922275476     0.360591864351

