# STO-3G

title

0 1
C      1.354549088655     2.792187754037    -1.283437263840
C      2.709055989589     2.477705447074    -1.519370219199
C      3.501659527711     3.338306196319    -2.307001373313
C      2.948348535740     4.504130529195    -2.872264452879
C      1.591927172119     4.806736666044    -2.649089470977
C      0.793151806124     3.954708206030    -1.856150285565
H      1.790571263392    -1.005701816776     0.248777168374
H      3.139112866829     1.563931149866    -1.116735374217
H      4.546096035126     3.088311307724    -2.482603698215
H      3.563896876547     5.162781432858    -3.480730494381
H      1.152291970184     5.701224701180    -3.086593243059
H     -0.255002552880     4.205044117173    -1.700553359810
C      1.043201065125     2.560020335929     1.693304586866
H      1.072813811611     1.776551627782     2.442153598573
H      2.011261603547     2.875698180446     1.319776397989
C     -0.114289528948     3.263491307219     1.375224140046
H     -0.053629551345     4.119035886428     0.719998347547
C     -1.403511244562     3.100992214518     2.070184512148
O     -2.403028709649     3.729964307509     1.631816495169
O     -1.470861881970     2.356354972062     3.262762761507
C     -2.773500813128     2.228962209553     3.847933285543
H     -2.702309685538     1.619785276485     4.774309593392
H     -3.185051695211     3.227651708132     4.119342522391
H     -3.470798878887     1.717271568262     3.146673092557
Pd     0.204411021406     1.598360646246    -0.175275853068
C      1.326420364040    -0.802876669485     2.395965626900
O      1.311963014771    -1.352454657746     1.192171274785
O      2.244662847688    -0.142832225270     2.931061940859
C     -0.038516449259    -1.024574600775     3.145732904245
H     -0.350036144671    -0.043712251479     3.518916179693
C      0.090929858976    -1.969209125195     4.320031692114
H     -0.897565186080    -2.107670146881     4.805110833767
H      0.479638747496    -2.950158267254     3.976652565899
H      0.799157163913    -1.546277680534     5.063524872089
N     -1.057541158568    -1.546392133517     2.235334888183
C     -1.484761435084    -0.817830118715     1.194875039706
O     -1.232950331348     0.409736980194     1.035806587117
C     -2.299359054626    -1.523020922618     0.187762427552
H     -1.668831295063    -2.304112088283    -0.274697520539
H     -3.185336884296    -1.951745800087     0.685303979796
H     -2.610085546947    -0.800487060740    -0.588893671530
N      0.202702798274     0.322514789640    -1.808393360933
C     -0.659368408919     0.556425437243    -2.843033840927
C     -0.543126634148    -0.156972914187    -4.016876593186
C      0.451631440046    -1.097548281926    -4.167405924076
C      1.310741776862    -1.311942015542    -3.124210009617
C      1.169941761625    -0.570898093931    -1.924832376304
H     -1.441173425765     1.298757062777    -2.733896670625
H     -1.226791383150     0.036269481734    -4.826351356815
H      0.555232968090    -1.654520915144    -5.094517284295
H      2.113168337509    -2.019338872577    -3.176210311326
O      2.044917837068    -0.821990593847    -1.007022510802
H     -1.159539266072    -2.548777324517     2.166123656254

