# STO-3G

title

0 1
C      1.387338333620     2.789919647084    -1.199502113909
C      2.725173140132     2.369538201754    -1.352394905914
C      3.620768454031     3.152407927456    -2.109162347376
C      3.187074319909     4.346778532883    -2.718728956140
C      1.850546732211     4.760218602168    -2.565835810105
C      0.946803733138     3.984805969961    -1.806462267653
H      1.480146047654    -0.835460697802     0.315103724098
H      3.068163487821     1.447675949061    -0.887536941049
H      4.652520287851     2.825076887893    -2.220872307251
H      3.882121351219     4.945864590759    -3.302720271420
H      1.507544186791     5.682457010231    -3.031319431496
H     -0.083666830520     4.320699411154    -1.702737930135
C      0.938990441348     2.613088433303     1.742407785760
H      0.948897609226     1.853314351327     2.514721102113
H      1.915736562336     2.936934988241     1.402972272226
C     -0.223421748161     3.292108143404     1.389742790487
H     -0.165171490054     4.147115244917     0.733902609505
C     -1.526063920927     3.097592031320     2.051396571385
O     -2.522630561907     3.727214888726     1.607893917432
O     -1.608225192939     2.324423187294     3.224723281426
C     -2.922271402449     2.160801601091     3.774188029163
H     -2.862934738686     1.531236054612     4.687663143482
H     -3.358399744391     3.145425071402     4.058228022769
H     -3.592738775684     1.653596238736     3.043866909239
Pd     0.144875910414     1.643952339207    -0.143485030802
C      1.843632988777    -0.437237465363     2.417421318565
O      2.096386634360    -0.418413044742     1.108174518118
O      2.626489885049     0.029852654571     3.270530586834
C      0.440939208110    -0.967047407505     2.903685307517
H     -0.088264139499    -0.077422818984     3.267891338401
C      0.574593138745    -1.940352925653     4.055820940756
H     -0.429692145851    -2.273152972512     4.391517683782
H      1.170464371817    -2.820556113794     3.738256427168
H      1.088254873350    -1.450104629845     4.909812973988
N     -0.405652463669    -1.594534178378     1.891627053031
C     -1.224128273069    -0.908006596206     1.078819454737
O     -1.281860795596     0.356204294869     1.019364401217
C     -2.153786689288    -1.710603913421     0.260503506917
H     -1.563896614373    -2.382727591437    -0.387255528932
H     -2.806004514122    -2.284184859063     0.939655538819
H     -2.758153964452    -1.028599723504    -0.365512851492
N     -0.040218468852     0.455764461590    -1.838941160089
C     -0.582561860639     0.980648459519    -2.979759721302
C     -0.760094292860     0.185827002599    -4.092430621130
C     -0.377312943515    -1.136099708460    -4.076610941941
C      0.172709077527    -1.642253148229    -2.930146345597
C      0.353696109273    -0.804300587802    -1.802103346262
H     -0.894789648063     2.017682221663    -3.002037135653
H     -1.190263248170     0.610873725961    -4.983962356139
H     -0.504446608065    -1.762378280661    -4.955422722862
H      0.514238347311    -2.654554800048    -2.859316369610
O      0.894014214740    -1.372488070471    -0.775351517070
H     -0.265063936299    -2.573884748571     1.685850774643

