# STO-3G

title

0 1
C      1.167256961240     2.761659059699    -1.364173345383
C      2.525023656879     2.388122516366    -1.427179663503
C      3.438132293965     3.173980856909    -2.160829660961
C      3.000842900790     4.325785762295    -2.843586318390
C      1.642272689018     4.691249351873    -2.789642355405
C      0.724782794845     3.913925497684    -2.050682167530
H      2.028683794653    -0.448632687124     1.051284714319
H      2.872049911305     1.486739443345    -0.927097686267
H      4.484767005264     2.878866891106    -2.200983666181
H      3.707862799064     4.927619228350    -3.409838308489
H      1.293875186740     5.578334521648    -3.315251352115
H     -0.321504428024     4.215435612414    -2.019048557117
C      0.599799372066     2.432250304479     1.606583189635
H      0.369862328155     1.659013698608     2.333276785736
H      1.652877148332     2.533109871869     1.368460315950
C     -0.342190665119     3.370717582317     1.189945254307
H     -0.019115060550     4.199217851748     0.578317739517
C     -1.703355549906     3.491464762179     1.740558349115
O     -2.475867747218     4.352215642951     1.243466615052
O     -2.084880564303     2.718433023486     2.853947193775
C     -3.403328004863     2.966210465408     3.362325223592
H     -3.591419524147     2.309496898075     4.238542389916
H     -3.506212823974     4.024171871176     3.695566877200
H     -4.173081451237     2.746682087602     2.587801418345
Pd    -0.181909312069     1.677741966742    -0.365995412579
C      1.650890464396    -0.998562986197     2.996555289768
O      2.300098769838    -0.305241081677     2.018252447803
O      2.049377355044    -1.014909645126     4.168615010644
C      0.327873679152    -1.740844094265     2.582179095389
H     -0.252870682914    -1.856836547830     3.501691109197
C      0.600905504116    -3.112523848027     2.005570315710
H     -0.354832166271    -3.595278214954     1.715383893840
H      1.247362686428    -3.021866435504     1.106385322767
H      1.116585162711    -3.745476403445     2.757556768282
N     -0.374358715874    -0.954917388885     1.568750541657
C     -1.516059215761    -0.267911950394     1.605286336227
O     -1.797700316415     0.630190904653     0.741474930606
C     -2.491811664480    -0.560319048124     2.668140354519
H     -2.716530297357    -1.640408219139     2.647480980367
H     -2.053642408858    -0.251497575066     3.632323954699
H     -3.411421408422     0.021759150226     2.476404109226
N      0.087496751277     0.241524038080    -1.846824183526
C     -0.445908333658     0.339197335289    -3.101574097864
C     -0.089359196009    -0.571048215282    -4.074477558527
C      0.807281959815    -1.579493134193    -3.796265204480
C      1.331013633525    -1.658876450597    -2.532995895002
C      0.954630209229    -0.708808837128    -1.554661675314
H     -1.150714918251     1.130729745789    -3.327753230752
H     -0.512608678225    -0.484948332269    -5.061449321418
H      1.094302974443    -2.294819400288    -4.562258538807
H      2.040912461043    -2.410957344772    -2.254713596562
O      1.496111004633    -0.845402185587    -0.386062386166
H      0.201214569731    -0.795098201909     0.718131209347

