# STO-3G

title

0 1
C      1.188236206745     3.100061432246    -1.254934036260
C      2.505583660070     2.762953574783    -1.631013878385
C      3.264583197671     3.656812964453    -2.413793059634
C      2.710845838234     4.881932065670    -2.835575813212
C      1.391390640800     5.210087556357    -2.471114867166
C      0.627648887327     4.323278139058    -1.681231361865
H      1.871593733879    -1.683427272766     0.422379175808
H      2.933343701633     1.808898465947    -1.329822769163
H      4.281159018408     3.390361347960    -2.696613198810
H      3.298528862247     5.568221427541    -3.440979314437
H      0.953711576252     6.152409153513    -2.795429658864
H     -0.392835918402     4.593500122040    -1.414596643752
C      1.062632483476     2.533035431233     1.720701542600
H      1.077071461365     1.660432821583     2.367666797752
H      2.027088506751     2.872749607614     1.360272982646
C     -0.090859974328     3.299984660013     1.556647056408
H     -0.033127834048     4.233669300195     1.018781723457
C     -1.347844177435     3.077363210478     2.292767112820
O     -2.351882135366     3.771108900437     1.982188665992
O     -1.365867593092     2.217824095144     3.406623885208
C     -2.633456831648     2.067779591428     4.060124010995
H     -2.524970023711     1.370590347700     4.918435737142
H     -2.995784381162     3.045423467689     4.451760489152
H     -3.388858342130     1.644348898177     3.360215874530
Pd     0.112819604390     1.825213266975    -0.171400131717
C      1.707990975015    -2.323890292872     2.388110721126
O      2.210574854856    -2.371848557426     1.138755175894
O      2.133458771442    -3.028409296031     3.320218573171
C      0.515164664979    -1.320084224376     2.556432136432
H      0.853633299407    -0.325925380563     2.254719064250
C     -0.033822572354    -1.266728637029     3.963723413666
H     -0.871259476510    -0.540675303513     4.010933326841
H     -0.399291210789    -2.270350972654     4.262155778265
H      0.762150303277    -0.945143921981     4.667043379761
N     -0.579135250077    -1.699664111378     1.652636016480
C     -1.278879404961    -0.823642982418     0.925535364866
O     -1.153278579965     0.433530523950     0.996887878540
C     -2.270033483937    -1.396868007992    -0.005010946914
H     -1.734828577475    -2.037105207966    -0.729250094743
H     -3.006213933126    -1.975113072237     0.578261537576
H     -2.773693992837    -0.572811568641    -0.542886052554
N      0.089627252354     0.575853019113    -1.829602778539
C     -0.505928313147     0.773080865777    -3.042585847627
C     -0.431322721119    -0.207810065047    -4.010672041458
C      0.261368362998    -1.377248744520    -3.775164786983
C      0.869574214176    -1.544363797988    -2.559095065870
C      0.786321927790    -0.520452588592    -1.586541195350
H     -1.053793353617     1.688574234667    -3.232876928129
H     -0.907646317244    -0.048398832958    -4.963823185814
H      0.331436687104    -2.145718505541    -4.540270627111
H      1.448437432155    -2.413594252605    -2.315094397147
O      1.405590456315    -0.694669155986    -0.472430700838
H     -0.717957894920    -2.688868090117     1.501013285017

