# STO-3G

title

0 1
C      1.030805722594     2.699266570015    -0.774467435745
C      2.363392874112     2.320493945499    -0.509410476231
C      3.422061285533     3.185288339421    -0.854416158399
C      3.159474731981     4.424439558584    -1.471586547961
C      1.829075385504     4.798999235312    -1.737636836185
C      0.763182547253     3.941431995749    -1.388293610563
H      0.442339456512    -0.832978277216     1.584993776248
H      2.582406787871     1.364458484790    -0.038364093788
H      4.446310417140     2.885473703130    -0.640895495934
H      3.979410354550     5.086879809593    -1.739134972374
H      1.614380345463     5.755801623136    -2.209564543887
H     -0.259519106242     4.254215121778    -1.591345685954
C     -1.630874422219     2.850787074386     1.075234908529
H     -1.657798521216     3.866201019137     0.692233110975
H     -2.555535953043     2.287707314845     1.021244273545
C     -0.550591980106     2.379754239885     1.818333185325
H     -0.579412965759     1.410769413779     2.302349339850
C      0.596332024214     3.222388823630     2.211610955944
O      1.510797687976     2.728886015128     2.919914434024
O      0.621737280489     4.575649252137     1.824667520779
C      1.832136171330     5.284789914653     2.122195049145
H      1.745809842426     6.330387372040     1.758061340429
H      2.018067150136     5.308908920129     3.219954188353
H      2.700405127938     4.810819476526     1.610114980278
Pd    -0.515456013714     1.504808844254    -0.373853170545
C     -0.766103079658    -1.602063645159     3.071966747961
O      0.160476820829    -0.738255951010     2.561857359347
O     -0.978256199574    -1.707521960522     4.286549895595
C     -1.629195767133    -2.388829051574     2.018927743019
H     -2.579678187147    -2.621208020982     2.508855085113
C     -0.980328022270    -3.688051747854     1.596572166315
H     -1.604711141923    -4.187330187807     0.827264524297
H      0.027374942646    -3.488964424720     1.172916060584
H     -0.873191595029    -4.360621027144     2.472993162032
N     -1.797340925527    -1.555202862572     0.828486017635
C     -2.716281947217    -0.620661493313     0.574584575286
O     -2.484244119299     0.389089664734    -0.167249826223
C     -4.057875915178    -0.766101777268     1.167151089231
H     -4.454361083862    -1.756263764787     0.882562696671
H     -3.970538818333    -0.667719637419     2.262752691553
H     -4.715468736834     0.030106341160     0.772490380489
N      0.369573406438     0.182139789968    -1.701305574287
C      0.543428419807     0.456220463934    -3.029741971560
C      1.263408106424    -0.411122313032    -3.824307706217
C      1.818060922265    -1.553589833935    -3.290925824371
C      1.634236646344    -1.808482554531    -1.957859330528
C      0.898188710955    -0.898939541039    -1.161720393048
H      0.111238549214     1.353764546058    -3.456502255320
H      1.397885787319    -0.184986815117    -4.868966048371
H      2.390931065800    -2.236018392895    -3.912954176213
H      2.049792934060    -2.671500263189    -1.478736806256
O      0.774562874122    -1.210105619034     0.090354991203
H     -0.906851947503    -1.410110417990     0.317752674877

