# STO-3G

title

0 1
C      1.292592298377     2.993812697954    -1.731244910765
C      2.591917744234     3.336896219352    -2.160714917357
C      2.762794888445     4.176325914668    -3.283226283155
C      1.642088536353     4.681699053585    -3.968517612590
C      0.345848373580     4.338747965566    -3.535046323276
C      0.167883442829     3.495655497979    -2.418874294528
H     -2.434437631534    -1.510189590448     1.833539428309
H      3.470552270459     2.942741102209    -1.653131075630
H      3.767363630014     4.429520605216    -3.615496749615
H      1.775394053111     5.331815645721    -4.829807262719
H     -0.525770882216     4.720214162886    -4.062729225037
H     -0.837493324952     3.221000431704    -2.106416173264
C      2.086569852699     2.908125631420     1.269800866719
H      2.268164381676     2.187697828395     2.061649804461
H      2.948469388803     3.295657063345     0.737516920687
C      0.832200185216     3.521299886967     1.117741474444
H      0.717534951087     4.328150187156     0.409997846571
C     -0.305778239504     3.355187624946     2.040905649494
O     -1.390043554584     3.927777417635     1.760717309527
O     -0.161576437235     2.578596878252     3.202138739027
C     -1.320757920470     2.490717594106     4.044150385301
H     -1.096289240091     1.846853525464     4.923172099717
H     -1.618899058721     3.495348545928     4.419173272952
H     -2.175515593617     2.031644536574     3.497722517953
Pd     1.021127819491     1.717396513454    -0.222440308179
C     -0.241857633225    -0.409951742025     1.499008131961
O     -0.974452906380    -0.689373748432     0.462886623259
O      0.781866551375     0.373047823352     1.463268817391
C     -0.668281138019    -1.029297591584     2.834552081403
H     -0.445843232023    -0.338051195857     3.651287140281
C      0.026618361677    -2.347494608710     3.100623816356
H     -0.301992447585    -2.742756492735     4.084100469453
H     -0.256426862254    -3.075913348066     2.312341546773
H      1.127153840332    -2.209058424696     3.110057087757
N     -2.105520506790    -1.268156186526     2.765211803022
C     -2.942124596507    -0.877380730173     3.758533246997
O     -2.579211774035    -0.357318302779     4.841818592228
C     -4.378075480266    -1.093935964662     3.489321824441
H     -4.958879795617    -0.743069258827     4.359830010160
H     -4.640664876762    -0.519701996883     2.585369059088
H     -4.534460998714    -2.173916319741     3.324483211856
N      1.089517693833    -1.848829580972    -1.925363616422
C      1.863320400917    -2.654056830251    -2.716967814966
C      2.484509173038    -2.129504388678    -3.838260434646
C      2.314937062199    -0.801540282594    -4.174393034019
C      1.529632969542    -0.021776819739    -3.364210564343
C      0.928461945567    -0.617462644013    -2.232897932066
H      1.994122974070    -3.698308077441    -2.458203859434
H      3.091127261385    -2.770701550132    -4.456133007645
H      2.783853458874    -0.387016844554    -5.062835667984
H      1.323401965388     1.004068766480    -3.591725012785
O      0.146750508710     0.212270538174    -1.484921337123
H     -0.441243055327    -0.293418512791    -0.680485360606

