# STO-3G

title

0 1
C      0.515456146719     2.849377104224    -2.205809777489
C      1.425039518163     3.895965308779    -1.954679160943
C      1.840126866463     4.737192417722    -3.009306773115
C      1.348119094164     4.541341733319    -4.313134091498
C      0.444882024673     3.490581763829    -4.565533329798
C      0.036265313389     2.640153086039    -3.518719551119
H     -1.963107017161    -0.739094015206     3.102633818906
H      1.826384777926     4.076616644576    -0.960444905715
H      2.543416159804     5.542012399186    -2.806019575072
H      1.667820802172     5.193727012222    -5.122073588724
H      0.066863621732     3.321521127696    -5.571307618135
H     -0.628425204871     1.805776527497    -3.735600462484
C      0.762312460953     2.233635075136     0.874866194364
H      0.725352913751     1.360949184790     1.519580533010
H      1.747029374606     2.494681033421     0.500589886751
C     -0.342413298220     3.097073110352     0.702479817898
H     -0.216896085331     4.016186359162     0.151913804954
C     -1.588606701471     3.022862182654     1.485741806965
O     -2.553605079961     3.750511975229     1.134841086905
O     -1.613510170330     2.310266581228     2.696150568500
C     -2.896770351118     2.203643058083     3.327589900778
H     -2.800299975327     1.612299568968     4.262473538975
H     -3.296394502446     3.209065792520     3.591239814380
H     -3.617932805198     1.676637449765     2.662310509968
Pd    -0.301886134499     1.565709841179    -0.908354309716
C     -1.409142843696    -1.013367056328     0.263160054275
O     -1.479285559566    -1.557475782468    -0.897786774055
O     -1.341508466709     0.271813805829     0.464240991523
C     -1.251371294504    -1.923232749936     1.504338902892
H     -0.313105875835    -2.460086821252     1.318929208962
C     -2.377605460537    -2.920248120299     1.666903698173
H     -2.167277367669    -3.573848545136     2.538484786954
H     -3.328230431840    -2.378880152860     1.844299310489
H     -2.469466545917    -3.547589456359     0.756163636837
N     -1.119147376734    -1.168545189191     2.744770676580
C      0.086427901886    -0.677243361847     3.145930225825
O      1.173103408818    -0.858634381726     2.540993739602
C      0.105743352505     0.085786902282     4.415370752287
H      0.384759464648     1.124429840759     4.174280856913
H     -0.884590829214     0.054826706055     4.896961217748
H      0.859370134016    -0.376835563754     5.074898631995
N      1.563048503879    -1.332550796950    -0.609647357815
C      2.783501135691    -1.502708479655    -0.014389364077
C      3.880990593324    -0.800865315468    -0.489103932001
C      3.751513381684     0.063458781095    -1.557932759510
C      2.508089523022     0.225011714484    -2.116067213362
C      1.433121896863    -0.517409547742    -1.583894394376
H      2.887932198538    -2.188099223615     0.818766044155
H      4.839716234855    -0.944530239674    -0.019168714324
H      4.610638555756     0.606489878669    -1.942574437755
H      2.337034105804     0.871437725886    -2.954120821638
O      0.205401420406    -0.246808785097    -2.153615437354
H     -0.549437508331    -0.895788133528    -1.772395612334

