# STO-3G

title

0 1
C      1.952618045942     2.802674802140    -0.253178016654
C      3.228848135014     2.328964472808     0.115838843052
C      4.368178737983     3.127444106029    -0.113481003157
C      4.240183205126     4.395027460172    -0.715581804586
C      2.966484523286     4.862577381258    -1.090696037156
C      1.820565172427     4.072667944492    -0.854852430085
H     -0.814449275978    -3.521608823347     2.327918362140
H      3.341293241086     1.338955613314     0.551310139848
H      5.350200863040     2.754628898475     0.170360191493
H      5.121228060603     5.007413534830    -0.892905996476
H      2.857752517341     5.836665355392    -1.563554783614
H      0.844021620668     4.445677109810    -1.160701087459
C      0.159796795742     2.187713630309     2.088650171640
H     -0.256022665093     1.293876886149     2.544316268502
H      1.178123405033     2.435068693761     2.374590672534
C     -0.593525666473     3.092116382995     1.323170078843
H     -0.133380227917     4.015601676265     1.003873169868
C     -2.060018937605     3.056895596887     1.179280597097
O     -2.595159774297     3.860205845741     0.370969258392
O     -2.833696621261     2.229430919885     2.010877195812
C     -4.251656282829     2.279811942258     1.801990867188
H     -4.752315488629     1.589074899928     2.514146803346
H     -4.642911721276     3.306743451492     1.982130477508
H     -4.509036330833     1.959308048185     0.767041547437
Pd     0.378556362816     1.603340263248    -0.034971100443
C     -0.991023794947    -0.968259840174     0.543646416326
O      0.064621581834    -1.543862292232     0.049297875657
O     -1.320902008385     0.255252515714     0.310640031407
C     -1.831272264899    -1.873262526949     1.480306896393
H     -2.273642743837    -2.659962266141     0.856770384302
C     -2.938727409068    -1.153055360470     2.218809213855
H     -3.466666567562    -1.867942485539     2.882562620762
H     -2.512318985659    -0.336875872207     2.837363991021
H     -3.660091526047    -0.723248384830     1.494893392868
N     -0.943989543437    -2.526669727700     2.449274063888
C     -0.063132123920    -1.840465739967     3.220645791871
O      0.023658066096    -0.590261261953     3.272201300163
C      0.840644618736    -2.667542907367     4.046238777993
H      1.440243506325    -3.294356763471     3.364734878872
H      1.492190589578    -1.999274618883     4.634825380433
H      0.220373239921    -3.292723082038     4.711363471625
N      0.384371816871    -0.775116152312    -3.262978866352
C      0.288433594411    -0.732406818963    -4.627747749373
C      0.945622554014     0.258982967813    -5.336880204222
C      1.709842791870     1.200091499845    -4.677557729901
C      1.790639296275     1.129366883013    -3.310388812978
C      1.092082117733     0.095787929748    -2.645209156907
H     -0.308009296466    -1.472152981002    -5.148776499253
H      0.863822897477     0.284724954406    -6.410776261750
H      2.240980694822     1.971825140809    -5.228258197862
H      2.398623173705     1.803805017719    -2.743565526298
O      1.232470966188     0.080586128982    -1.294461672095
H      0.738312055988    -0.793842488144    -0.749487021179

