# STO-3G

title

0 1
C      2.428971750478     2.783827240587    -0.565014897978
C      3.795058760619     2.443473092061    -0.479941784816
C      4.770002884326     3.305074539121    -1.024453110747
C      4.386478218278     4.503389270720    -1.658179249927
C      3.022084588698     4.837369966353    -1.749995599998
C      2.041929586713     3.983175001268    -1.200388594599
H     -1.585476878778    -0.316902339906     2.495619469847
H      4.104171225977     1.508318093239    -0.017556724006
H      5.821695958599     3.034928880124    -0.957835492133
H      5.140341991620     5.164992272091    -2.077817158165
H      2.714584105571     5.755670370950    -2.245826730912
H      0.990011513367     4.248961753728    -1.297115930220
C      1.306878257378     2.236429564166     2.176432365001
H      1.038223305212     1.394713454622     2.810168045105
H      2.341306467472     2.561133917963     2.197947628116
C      0.320932725848     3.022348307675     1.560350690712
H      0.606829254773     3.928238358147     1.049043580365
C     -1.122434375797     2.891249344695     1.821176101282
O     -1.920952985800     3.522765996973     1.080444003736
O     -1.547918316209     2.281650943182     3.008592102129
C     -2.963107178595     2.117306190318     3.165723419930
H     -3.160749725887     1.585816085320     4.123217935537
H     -3.478806157008     3.102683670391     3.194961362164
H     -3.381374861725     1.494009374014     2.343704932347
Pd     1.075131662806     1.484471658366     0.116779172064
C     -0.263905459548    -1.203168445879     0.690773293497
O      0.514422180153    -1.737396400344    -0.181334253702
O     -0.346083071264     0.075202924934     0.915773083491
C     -1.174710043074    -2.108771355607     1.544805050244
H     -0.588576459074    -2.992165669637     1.822406599599
C     -2.394456375124    -2.551239839890     0.762412722650
H     -3.015676816490    -3.228267638727     1.381551188813
H     -3.000992638112    -1.659604354024     0.497472045064
H     -2.088797999264    -3.081234625047    -0.163872405729
N     -1.613297199245    -1.317198726431     2.690172020108
C     -1.861821959083    -1.649783398497     3.982432318620
O     -2.165570186623    -0.803397940512     4.858047164614
C     -1.770777876652    -3.080794673328     4.350986087019
H     -2.485929350972    -3.644712459934     3.731843953116
H     -0.733208403507    -3.412402692369     4.189598234357
H     -2.034950432601    -3.183337146322     5.419384797531
N     -0.278675208112    -0.132698309260    -3.055655725115
C     -0.824676609307     0.184234327799    -4.270766993296
C     -0.187646297023     1.093580629251    -5.098808667111
C      1.002302404770     1.676871863013    -4.712340122614
C      1.527530964868     1.332258052794    -3.493324852584
C      0.825882511210     0.401736432679    -2.696297366405
H     -1.758955159262    -0.271749188801    -4.576914463185
H     -0.626363989302     1.340303188084    -6.051502240587
H      1.512384691763     2.385667078002    -5.359221442492
H      2.459352968424     1.728199508306    -3.141978083220
O      1.416405083974     0.104619369515    -1.499038503872
H      1.042648204652    -0.812245819560    -1.010763556863

