# STO-3G

title

0 1
C      0.739379748486     2.576210427781    -1.664912475594
C      2.060804974341     2.898636067394    -1.292822501597
C      2.847435018456     3.718743951589    -2.129919246570
C      2.317688146231     4.222338913943    -3.333317528316
C      0.996827803217     3.900326964175    -3.701862115854
C      0.204667237935     3.082283452323    -2.868885601527
H     -1.343950224469     0.474204211307     3.233061463593
H      2.493239061816     2.495051777504    -0.379696664856
H      3.868522261204     3.955403687249    -1.839146687860
H      2.924918139549     4.855682994053    -3.975328743416
H      0.579724045868     4.281655244475    -4.631493939593
H     -0.813017441131     2.838417000552    -3.170326843643
C     -0.353202477635     2.771737493246     1.104288289479
H     -0.457956221774     2.166964918725     1.998045550528
H      0.611742113837     3.253267077687     0.992427225049
C     -1.431825152354     3.134701611395     0.279143855853
H     -1.271452941402     3.870440350989    -0.495281469219
C     -2.847664839573     2.844139680137     0.570172208712
O     -3.704564686924     3.124754956589    -0.308894261898
O     -3.225803525151     2.364516305129     1.835675163212
C     -4.626442396081     2.125343258519     2.025645785912
H     -4.796266254262     1.752596752594     3.058700671055
H     -5.209739861992     3.064867563612     1.895522687821
H     -4.995020749675     1.355293800605     1.311006916582
Pd    -0.408231398690     1.349561840526    -0.581259725481
C     -1.355275116960    -1.106367605196     0.939458337465
O     -0.753066941291    -1.918662466602     0.143209710718
O     -1.717893446419     0.099963847975     0.615003997904
C     -1.470176250129    -1.480234354793     2.440124203781
H     -0.967468975446    -2.438830168663     2.594613931343
C     -2.897530048729    -1.588846289928     2.926438595653
H     -2.899301347393    -1.829608422900     4.009587790444
H     -3.414998722329    -0.618459465144     2.777964308236
H     -3.433180285072    -2.384953612169     2.370156192831
N     -0.810532605421    -0.392642854906     3.179512358555
C      0.532867835118    -0.149645674608     3.258524801624
O      0.998805400938     0.996610139169     3.472781607659
C      1.453858086378    -1.296070807334     3.112270541962
H      2.483877096642    -0.936498583997     3.282489585534
H      1.184396042710    -2.047813058654     3.871988281285
H      1.369878953915    -1.698194681538     2.087194719856
N      2.462341283591    -1.080065498066    -0.431191051272
C      3.826955485309    -1.179080168784    -0.493599194994
C      4.504028455938    -0.713429567410    -1.607885294081
C      3.811135439824    -0.161482169653    -2.666630437057
C      2.444461863190    -0.095599648451    -2.581799476283
C      1.816295267447    -0.578074892722    -1.414420030456
H      4.373929949476    -1.609405761035     0.337136840005
H      5.578455677158    -0.785799006501    -1.644605990735
H      4.334077029485     0.210224905046    -3.543736979963
H      1.842773237726     0.326234254035    -3.361618174973
O      0.452087402629    -0.466238723858    -1.406869561525
H     -0.060311633078    -1.219194164842    -0.804617019770

