# STO-3G

title

0 1
C      1.766749787175     2.290468645208     0.066506151268
C      2.883333033052     1.693886518207     0.690223784096
C      4.100289460392     2.400144119012     0.777369908333
C      4.208062094660     3.699853978097     0.243993499094
C      3.093448255406     4.291693781276    -0.379287947199
C      1.869754158758     3.592553567922    -0.465131548212
H     -3.446358488013    -0.079805235466     1.156665526896
H      2.816221305852     0.685553296382     1.093551310650
H      4.956989660464     1.932050587793     1.257570577242
H      5.148047899325     4.242054937874     0.311900199752
H      3.167124927200     5.293531459221    -0.796977365673
H      1.019947970381     4.065381270934    -0.953266035930
C     -1.273005065914     2.687069802500     0.722683452920
H     -0.941958367385     3.690335833093     0.477698116535
H     -2.175990302825     2.329087415067     0.237471222638
C     -0.762034423681     1.989358128308     1.827448980432
H     -1.246913999974     1.081469599490     2.151896349786
C      0.224596013281     2.533306205221     2.775535176882
O      0.788343177542     1.741269691713     3.575648638364
O      0.669188908495     3.859051825644     2.621992408302
C      1.784798288686     4.244406554946     3.436262445741
H      2.043579868858     5.304232407079     3.227081203753
H      1.537669047715     4.150051251244     4.517970970654
H      2.676680897982     3.619888254494     3.201958069102
Pd     0.111898330186     1.198216500906    -0.119202974780
C     -1.587855874824    -1.305786994257    -0.115341509771
O     -0.571056245118    -2.000798500437    -0.474677323827
O     -1.685202368715    -0.014600752946    -0.261279795850
C     -2.769121923482    -1.973969590120     0.636914523478
H     -2.395030787361    -2.882969428612     1.115719266081
C     -3.906836834645    -2.348075232512    -0.285579153005
H     -4.717208790152    -2.824014057737     0.304125383131
H     -4.311208767769    -1.432520479184    -0.765494409130
H     -3.554610656609    -3.054153831465    -1.065758885906
N     -3.265760913891    -0.982420439899     1.597585726362
C     -2.969485760331    -0.849978387307     2.921144984936
O     -3.023350242038     0.256397894662     3.515854125023
C     -2.612503686072    -2.071308982892     3.673898242213
H     -3.416759304781    -2.811209823483     3.524239407070
H     -1.639910582327    -2.436914654590     3.308796526167
H     -2.532547830162    -1.809937819945     4.745141717182
N      0.455408783021    -0.691279731376    -3.507842866717
C      0.634726115514    -0.438157952716    -4.841308393979
C      1.608517455593     0.458207528262    -5.249404660180
C      2.410886935618     1.089489956997    -4.320233676553
C      2.209644173247     0.809936785987    -2.992627296858
C      1.197701333500    -0.111530099451    -2.644532492165
H      0.007678523685    -0.934206913287    -5.572967146621
H      1.742594666393     0.652668222175    -6.300685848087
H      3.186389662057     1.783826210032    -4.632710305044
H      2.820253317851     1.238641661948    -2.223879784718
O      1.065346734780    -0.343382696524    -1.303698570744
H      0.414993804119    -1.171070490997    -1.050295208064

