# STO-3G

title

0 1
C      2.415736330123     1.795414746856     0.386836960755
C      3.705985513987     1.561806688331     0.907697281234
C      4.744490881906     2.479711498796     0.649506804745
C      4.495586449685     3.633753404278    -0.118959895127
C      3.205648996482     3.864568067468    -0.631769974110
C      2.160785098156     2.950169661712    -0.376117659768
H     -1.997798592535    -0.918883611108    -0.892614917064
H      3.914840537275     0.675475293619     1.507238958983
H      5.738081782158     2.290227423300     1.049361260414
H      5.296658506262     4.341704848986    -0.315957805643
H      3.003096037830     4.750922476771    -1.228647865127
H      1.172714363857     3.144800367290    -0.787176600700
C     -0.523939224402     1.707606219220     1.318789075575
H     -0.420629539107     2.639240579041     0.772472518081
H     -1.354021805753     1.079293463520     1.015606294648
C      0.182738682240     1.454399780002     2.514096111278
H     -0.085174493217     0.583533796965     3.095447188343
C      1.054016499987     2.432629190718     3.187307122405
O      1.712857742905     2.059069409137     4.192050733298
O      1.214065731796     3.715765950807     2.637930257440
C      2.266496695332     4.511880533072     3.198652481420
H      2.298831895110     5.494179580957     2.680336162055
H      2.093844214060     4.693503434827     4.283643318342
H      3.253409150831     4.015863181735     3.054204977740
Pd     1.119178526945     0.345833975860     0.820377105934
C     -0.662712352826    -2.127974046736     0.711930915089
O      0.041573327480    -2.639042729727    -0.240382461218
O     -0.204325880973    -1.245111865847     1.551607504206
C     -2.204464841413    -2.305732017469     0.697587424723
H     -2.580080249535    -2.280581645244     1.724629089287
C     -2.679010767799    -3.559067668305     0.000250049633
H     -3.787130987627    -3.594434669005     0.016133328271
H     -2.341925177867    -3.538235075914    -1.058321140114
H     -2.268778412132    -4.458365099408     0.502936841204
N     -2.627393157957    -1.136669359384    -0.094875294805
C     -3.482140004029    -0.130687231321     0.210160817947
O     -3.544402513453     0.932153362094    -0.466112633714
C     -4.386265771411    -0.311634493580     1.367502845075
H     -4.951350261743    -1.246481586610     1.215614500262
H     -3.776930652734    -0.339925499152     2.284295340777
H     -5.080843615965     0.547361408753     1.406222480187
N     -0.697700353753    -0.131226102301    -2.077209250154
C     -1.402052553006     0.679083292202    -2.928397011019
C     -0.730363300854     1.606004288938    -3.709059102395
C      0.642905875692     1.714859454595    -3.640721944028
C      1.317397084175     0.893596911836    -2.773895200159
C      0.580732409871    -0.029834206567    -2.002817617880
H     -2.480907925740     0.592635235456    -2.987531636412
H     -1.293841372744     2.239376299244    -4.373511488687
H      1.175523848867     2.438250301330    -4.251933710594
H      2.382845537892     0.929175152082    -2.661256255373
O      1.333898792497    -0.774166915513    -1.142855064145
H      0.856396668639    -1.689803643902    -0.807636513346

