# STO-3G

title

0 1
C     -0.501547318509     2.178597142490    -2.163113200782
C      0.096427338244     3.256153184221    -2.851253080038
C     -0.356631821872     3.605074245718    -4.141853376823
C     -1.412575767091     2.892067082126    -4.740129094872
C     -2.009767623742     1.819228883903    -4.048697324049
C     -1.556032149876     1.458953036410    -2.763092525503
H     -1.145526311490    -2.089304603118     3.491159014567
H      0.920210442168     3.813680721645    -2.407680931072
H      0.115476190875     4.430820083183    -4.670451790973
H     -1.764067246162     3.166091271338    -5.732076926130
H     -2.820863587111     1.257703774225    -4.507703314979
H     -2.001785004650     0.609780977083    -2.250595392396
C     -1.373762286354     2.685845654931     0.654362601034
H     -1.571054772685     2.094220600146     1.546122581929
H     -2.173928249040     2.722805184941    -0.078473553268
C     -0.267609943814     3.544072166538     0.528843260352
H     -0.219594450952     4.215638299213    -0.315595804033
C      0.676064214725     3.854791627375     1.618838437887
O      1.669731657145     4.581634768972     1.355790669364
O      0.431331660178     3.388269725145     2.922129179968
C      1.434154032763     3.696716513823     3.899234277893
H      1.129607470700     3.276419682579     4.881896041250
H      2.412143750654     3.245866781329     3.615754397834
H      1.550520840983     4.798275501476     4.013651720145
Pd     0.221906759333     1.573199658411    -0.409475788562
C      0.435573761428    -0.196304146981     1.941334789108
O      0.153647144719    -1.194574047188     1.164751647051
O      0.954291156359     0.916056417769     1.537938962712
C      0.029921331875    -0.321242532257     3.428294201976
H     -0.131956137963     0.691927085363     3.805766161214
C      1.083793507028    -1.006758484165     4.269400110632
H      0.735457116241    -1.063805846352     5.321307912605
H      1.248808066574    -2.036293500913     3.889574823892
H      2.035327028192    -0.438050158715     4.228010925509
N     -1.216018387776    -1.080263168627     3.527915910213
C     -2.374252083528    -0.482020921484     3.138965545650
O     -2.456563162575     0.712276659352     2.759970487400
C     -3.603974041112    -1.301707832594     3.180993661185
H     -3.987642096662    -1.378173916360     2.150630538601
H     -3.382747084408    -2.303470755368     3.586960401721
H     -4.331702850647    -0.783387554820     3.828335785610
N      2.541144613201    -1.670231752928    -1.271085327884
C      3.652068620900    -2.039065470020    -1.980525918567
C      3.888215937814    -1.490362242177    -3.229948924048
C      3.003247427416    -0.580646710469    -3.772207373063
C      1.897529336889    -0.232977196375    -3.038756905793
C      1.717840778124    -0.826022929927    -1.768306462612
H      4.346792123350    -2.755972069900    -1.558782184623
H      4.765253564351    -1.786433537582    -3.781173688813
H      3.174016735056    -0.157030253764    -4.758302615906
H      1.155012792018     0.436910514992    -3.419266441990
O      0.593624800179    -0.444855621253    -1.104923464562
H      0.430653907603    -0.940580655334    -0.123125876485

