# STO-3G

title

0 1
C      0.073983788464     2.268958927487    -1.265274977319
C      1.318306274368     2.928866175941    -1.318095454155
C      1.519328821916     3.979514003586    -2.239320983582
C      0.482428053157     4.375735918739    -3.105572897767
C     -0.760466565300     3.714722739051    -3.052150159586
C     -0.968399684670     2.666054076988    -2.132158188273
H     -1.847310312459    -1.994235356492     3.819966334177
H      2.136832588734     2.618230054227    -0.672858642973
H      2.485288018706     4.478268271871    -2.277742254186
H      0.641444199379     5.185624423106    -3.813240977806
H     -1.566961009436     4.009476834713    -3.720174696629
H     -1.935921081113     2.166192769703    -2.102185993656
C      0.121877974875     1.871185938252     1.750245861841
H      0.781932054579     2.700992440946     1.517845048322
H      0.538213528260     1.078848275136     2.367952150136
C     -1.264780394046     1.949725781488     1.512873545604
H     -1.901570364029     1.162321834131     1.893491601608
C     -1.958233355321     3.163322920778     1.048561388802
O     -3.181775726604     3.087409542450     0.765175712599
O     -1.227387801012     4.345472769980     0.840506103072
C     -1.945885791809     5.432726500577     0.242367544655
H     -1.263096060923     6.301234101564     0.122518238228
H     -2.321512994071     5.149446438662    -0.766859686715
H     -2.800559427917     5.744956637570     0.884234861409
Pd    -0.285773647623     0.711651649201    -0.073107941934
C     -0.091553776821    -1.945839750580     1.405147161500
O      0.707683276844    -2.391874942398     0.499987989336
O     -0.845051929968    -0.900844844162     1.261776109273
C     -0.111146192554    -2.655302364104     2.780564942676
H      0.937105077656    -2.734012024103     3.089094128466
C     -0.708464181201    -4.044287733983     2.717765020777
H     -0.660927509972    -4.511558886797     3.723161012993
H     -1.769402446423    -3.979403665973     2.402025550216
H     -0.143801079160    -4.672343133986     1.997775770988
N     -0.843662244367    -1.875098361366     3.771997910486
C     -0.280409477353    -0.743800166986     4.274429587773
O      0.866280511138    -0.334004043404     3.967850632904
C     -1.083639354491     0.041107030244     5.237786592310
H     -1.256674180678     1.035738184708     4.795335444658
H     -2.041996952107    -0.464775026758     5.443926114597
H     -0.497013649608     0.130544570074     6.168137842975
N      2.948241776191    -0.860409643722    -1.706679723546
C      4.024648460691    -0.587824738453    -2.507748272957
C      3.843893137973     0.088494277648    -3.702722441214
C      2.580460268860     0.476126519643    -4.101538006058
C      1.520718375304     0.167185357179    -3.288430819147
C      1.774999140449    -0.511178836488    -2.076666794392
H      5.017741191086    -0.889926998010    -2.196302255867
H      4.697494540220     0.308151459603    -4.322037121757
H      2.428832824279     1.007905194545    -5.036932582489
H      0.514434844656     0.433328926419    -3.537729415134
O      0.671166821446    -0.775823183575    -1.322288226375
H      0.785080907996    -1.580402644784    -0.566193359242

