# STO-3G

title

0 1
C     -0.574513948072     2.322743156306    -1.762509099592
C      0.546366831641     3.157710082857    -1.935089200398
C      0.524738260625     4.171293113010    -2.917597445124
C     -0.615863221479     4.360132739244    -3.719891528291
C     -1.737634863034     3.526488891925    -3.542878871492
C     -1.719965814719     2.510806512957    -2.565436211788
H     -1.057321183454    -1.605834116848     3.680676946659
H      1.439338863355     3.027323098354    -1.327399371203
H      1.398017457530     4.806640363625    -3.048108917340
H     -0.630539748121     5.142678930369    -4.474490629751
H     -2.623236941657     3.660389680616    -4.160240650517
H     -2.596118717192     1.873361425145    -2.444341368462
C      0.216633525216     1.840364884612     1.215164765915
H      0.933571133095     2.568575230594     0.850340756885
H      0.631513512414     0.956601837818     1.690766835330
C     -1.161946437120     2.129572101266     1.295503750574
H     -1.806923623111     1.430112366156     1.808769540805
C     -1.755272459064     3.440164661878     0.980919390473
O     -3.008275402006     3.551523675266     0.986225103361
O     -0.924265423972     4.499162116259     0.577140932908
C     -1.591507219330     5.647651206143     0.036651915768
H     -0.835986279186     6.409525237843    -0.251728242822
H     -2.167259623927     5.373127682913    -0.876848827664
H     -2.276918229319     6.100820880370     0.788365347982
Pd    -0.745584850576     0.817147538615    -0.465204928104
C     -0.789948943317    -1.949409403112     0.846988869109
O     -0.816276757842    -2.552499430101    -0.284268327201
O     -1.138808551762    -0.705163480043     1.017657687747
C     -0.187371273438    -2.666570959776     2.078069475639
H      0.844534882567    -2.891259915839     1.783792800404
C     -0.900820141920    -3.951051349891     2.437147425635
H     -0.380884289161    -4.434420025101     3.289836654174
H     -1.944313110634    -3.724511715929     2.734504936931
H     -0.901378295280    -4.644557611342     1.570824361074
N     -0.160052226987    -1.804742251738     3.255305198462
C      0.887005634462    -0.968023315699     3.493655321219
O      1.924741062341    -0.895929426042     2.788746214928
C      0.782695110782    -0.096502280860     4.687574275775
H      0.796445033092     0.949889276564     4.342743821733
H     -0.145726121770    -0.309076943876     5.244046356557
H      1.657837051623    -0.301746989175     5.327636989587
N      1.950232673452    -1.271705335972    -0.457923452264
C      3.255273410536    -1.044035251051    -0.114937964633
C      4.012882788033    -0.152629933215    -0.859213427768
C      3.463218702686     0.497638540274    -1.946712870183
C      2.146622726262     0.256387550957    -2.250790332904
C      1.431115272558    -0.657815445276    -1.451195619475
H      3.689838903828    -1.560966474208     0.732929990945
H      5.041073388773     0.018783879117    -0.586545745453
H      4.055750279833     1.187671656064    -2.541401528505
H      1.652040260806     0.719715724543    -3.082212085421
O      0.102495376531    -0.802501156012    -1.788846451972
H     -0.334229178286    -1.636477030415    -1.287684238479

