# STO-3G

title

0 1
C     -0.777493796600     3.354739899414    -0.315923081335
C     -0.428129133010     4.584066934910    -0.908735425533
C     -1.181254553326     5.740278439468    -0.611079043669
C     -2.261995221868     5.673106855323     0.287550157318
C     -2.597753983678     4.441265747879     0.882594046715
C     -1.857939514337     3.279492536391     0.582713764671
H     -1.059040416350    -0.075927539697     1.237153370481
H      0.407417207247     4.655676038592    -1.601322504230
H     -0.915858613521     6.685466232645    -1.079856342579
H     -2.836882354841     6.566727387869     0.518543955956
H     -3.435119456315     4.378168091313     1.574398959832
H     -2.140815176455     2.331731810257     1.030587313780
C      2.210205478367     2.459322882015    -0.335169529656
H      2.298266569605     3.519511775034    -0.550364423500
H      2.792811315999     1.760403115483    -0.925132203091
C      1.658195304763     1.992450926580     0.871310399841
H      1.733785520066     0.939151611626     1.116958353424
C      1.218506087765     2.877871941079     1.967061073905
O      0.668704298451     2.378865281301     2.982605365564
O      1.390280638006     4.269124190691     1.838654379477
C      0.774112714582     5.070905402681     2.855100329477
H      0.964452611683     6.144207156534     2.642319753065
H     -0.328124403444     4.911395973446     2.865572044863
H      1.193869253742     4.830850396368     3.858153832921
Pd     0.202573022460     1.720981278095    -0.874459970686
C     -1.666435679651    -0.530961567380    -1.307085546569
O     -1.040954502742    -1.156625446426    -2.241471886141
O     -1.715957591409     0.769913742195    -1.190807088089
C     -2.137444640736    -1.349197887297    -0.068061147215
H     -2.161240173799    -2.410698374631    -0.326150023902
C     -3.485506905591    -0.936606439522     0.475850741096
H     -3.721678265593    -1.545568309142     1.372742846443
H     -3.460542065743     0.131900636809     0.773304646380
H     -4.271331130790    -1.088246334879    -0.291843051227
N     -1.112271802432    -1.055194943039     0.954695427912
C      0.050918619600    -1.720824182716     1.219273363671
O      1.020984603345    -1.187533003161     1.814480829685
C      0.130965391129    -3.145704672718     0.833548965468
H      1.105609674407    -3.538588899892     1.175364312404
H     -0.691222059177    -3.678036009867     1.339455833435
H      0.062561575868    -3.225744143151    -0.263453553328
N      2.950089812288    -0.526486618935    -0.586958624312
C      3.872975699958    -1.404619198481    -0.088618882231
C      3.926190048599    -2.699718338149    -0.576476723939
C      3.051163074500    -3.113057506541    -1.558823134701
C      2.121027821189    -2.216294293432    -2.022069501442
C      2.113238608413    -0.908464531055    -1.470646813427
H      4.567031029705    -1.079248810387     0.677412893414
H      4.660929603169    -3.381803670008    -0.181933985615
H      3.093043187841    -4.126109606263    -1.949958112091
H      1.415797552243    -2.485848722437    -2.782508734910
O      1.152812810858    -0.050353894440    -1.933611692673
H      0.308861413238    -0.513571769547    -2.324548617610

