# STO-3G

title

0 1
C      0.580024520250     2.859182846982    -2.166425958344
C      1.517334536669     3.878264015009    -1.903539456078
C      1.963594053013     4.713418217892    -2.950303763033
C      1.474591171816     4.539457719344    -4.258335592509
C      0.542791681508     3.516876384286    -4.522469469693
C      0.102606167804     2.672636786603    -3.483466329201
H     -1.832925464731    -0.586815119325     3.119186858787
H      1.918180088190     4.040764775478    -0.905901531627
H      2.688913217773     5.495990760517    -2.737729346255
H      1.818172637916     5.186886236461    -5.061443287166
H      0.166127918986     3.365118361051    -5.531544557339
H     -0.585658387558     1.860259002049    -3.709411818536
C      0.716285759440     2.297532503715     0.938314622524
H      0.643915062572     1.440416500931     1.600528334251
H      1.717482811670     2.549703535792     0.605745932108
C     -0.380158944575     3.154758689301     0.701691452777
H     -0.233481115830     4.062569130384     0.137732274817
C     -1.659150862052     3.087745636093     1.431241278465
O     -2.612627223833     3.803705449690     1.029276847279
O     -1.736237457900     2.378796517094     2.641063104022
C     -3.045540162229     2.258559217988     3.212962881029
H     -2.983912091494     1.663392222577     4.149416592337
H     -3.465678497122     3.259512289787     3.461107805125
H     -3.731195099555     1.727264788718     2.514465802539
Pd    -0.268816090159     1.589102854165    -0.874751470908
C     -1.437470529957    -0.969914232045     0.288591026809
O     -1.534620156505    -1.503033449987    -0.874521179437
O     -1.321992549207     0.311665214484     0.495999030035
C     -1.315910724398    -1.885343969647     1.529762608605
H     -0.443970196501    -2.515745458916     1.319998903736
C     -2.529444144264    -2.761027280019     1.749899897228
H     -2.348349669443    -3.428494469671     2.617530486463
H     -3.410850739701    -2.124271268031     1.964337513977
H     -2.724636142160    -3.379469700326     0.849416300176
N     -1.061998713948    -1.129807901804     2.749443264667
C      0.200970965615    -0.793391937204     3.131883539184
O      1.255077521823    -1.147176294409     2.549297516193
C      0.292292891474     0.023360686539     4.362308051035
H      1.356899218382     0.201935140859     4.591329936525
H     -0.230270354885     0.975453580754     4.177697427794
H     -0.192545583861    -0.537146882450     5.179750779059
N      1.519094278929    -1.406357615282    -0.644903261621
C      2.742611321537    -1.652020572589    -0.083058961245
C      3.859715520040    -0.978933674485    -0.554119450323
C      3.746188614892    -0.068383935229    -1.585902557115
C      2.500163841810     0.166232431429    -2.111836923622
C      1.405626177450    -0.551134816609    -1.585214997871
H      2.834599922942    -2.375125957101     0.719091680801
H      4.820518769280    -1.181851005418    -0.111084208535
H      4.620236012416     0.451975510955    -1.968247008329
H      2.341720097231     0.847924043067    -2.923774681465
O      0.178077311580    -0.215630682798    -2.123273954125
H     -0.591626511624    -0.851638827375    -1.750095650743

