# STO-3G

title

0 1
C     -1.603376601578    -0.201047741004     1.154313242673
C     -1.830633260483     1.002360438985     1.882199177314
C     -1.366886549404     1.135774344739     3.193079945424
C     -0.640399650150     0.079256169024     3.804928439887
C     -0.380588945406    -1.099209759855     3.098763508648
C     -0.872291479233    -1.257030698349     1.773028352701
H     -2.118601403527    -0.354253380952     0.209443297796
H     -2.400370206387     1.800854862099     1.412868919580
H     -1.558884937136     2.050209116410     3.750056779068
H     -0.292514428316     0.191751160245     4.828962954056
H      0.170233223288    -1.911455835046     3.566217845997
H     -0.803080311358    -2.233412042532     1.299616120063
C      0.627556819854     2.434875197524    -0.305449628466
H     -0.416276057314     2.462207351947     0.005036611238
H      1.071927067217     3.406750388337    -0.043720412943
C      1.379548867100     1.258101377396     0.359809963242
H      2.271117858477     0.978368245632    -0.200556299458
C      1.735081600087     1.338777773800     1.791259606917
O      1.434938437708     2.360795422439     2.464505091831
O      2.593553506379     0.352322043293     2.308213738138
C      3.067482593744     0.570887106886     3.644572369507
H      3.727456842857    -0.271208286622     3.944513748498
H      3.658013646674     1.513387122183     3.704338893424
H      2.220007045692     0.623497368168     4.363673751206
Pd     0.331142833369    -0.427896696328    -0.207754429466
C     -2.351251200427    -1.198175131301    -2.874684419719
O     -2.679293042553    -0.422819552902    -1.792894629204
O     -2.614157741139    -0.896052169065    -4.053548191681
C     -1.482319641520    -2.426921764112    -2.485056573570
H     -1.306511260939    -2.990995883639    -3.414298492669
C     -2.140681333577    -3.338961774613    -1.477924399900
H     -1.450807983936    -4.170263487446    -1.224795531632
H     -2.375836368055    -2.774106516769    -0.554173086845
H     -3.078975715042    -3.756867554691    -1.897566229158
N     -0.263970913202    -1.887872131963    -1.872400231299
C      0.764113075463    -1.413992023976    -2.539808495160
O      1.621425863984    -0.633000476190    -1.897313311494
C      1.007201193009    -1.693066786212    -3.969043017452
H      1.094919736167    -2.784209180755    -4.100875288166
H      0.169892039897    -1.273989465658    -4.553334782404
H      1.948244539097    -1.195442481248    -4.267776790513
N      0.592106231081     2.319851800264    -1.803494625950
C      1.723070344157     2.411267786415    -2.596759032779
C      1.639210921301     2.224671889722    -3.961160862751
C      0.436220550624     1.941726319781    -4.558949084214
C     -0.678877344800     1.829622835465    -3.776582148419
C     -0.597193736796     2.025935034652    -2.374990101934
H      2.682493124671     2.642765999951    -2.147744165140
H      2.530680927946     2.310079105256    -4.558306959215
H      0.372412903256     1.802794165824    -5.634606131671
H     -1.639218861364     1.613748253000    -4.200547289877
O     -1.672244142616     1.888193800213    -1.712839129251
H     -2.527876140695     0.582524256906    -1.902592859059

