# STO-3G

title

0 1
C     -0.175422917009    -1.040207288597     1.876907445932
C     -1.273087122431    -0.266483922980     2.304610727285
C     -1.972796822591    -0.635108481091     3.470492479991
C     -1.575269921788    -1.769767179603     4.207141411781
C     -0.474628126425    -2.538608637355     3.778441262085
C      0.225650099270    -2.173648528368     2.610545552621
H      0.359462746913    -0.749588184666     0.975018794724
H     -1.539324872029     0.615693233037     1.727856501608
H     -2.820462896154    -0.039836000782     3.804127230815
H     -2.117353225457    -2.052655699480     5.107370263711
H     -0.165736810774    -3.413123736518     4.347492755729
H      1.078036055755    -2.764143409351     2.279333255659
C      1.972667315168     2.655142651423    -0.604748707845
H      1.226981943170     3.439437955077    -0.530001274861
H      2.585057902709     2.621332324302    -1.501596609244
C      2.269740625679     1.839734220913     0.495660866807
H      3.074524000742     1.120724930796     0.418097921367
C      1.734288914559     2.032133134901     1.856302383173
O      1.067155625197     3.064210619697     2.133048377102
O      2.120526103976     1.120696043779     2.852490413110
C      1.528431541650     1.316673426520     4.144307171499
H      1.879966433820     0.520282226607     4.834671531538
H      1.819085189604     2.304214474150     4.568418418357
H      0.418367225338     1.251409182227     4.085617836751
Pd     0.826715330431     0.795526925853    -0.874045618228
C     -1.699430292169    -0.808053495786    -3.788078083038
O     -0.648867177749     1.772563561021    -0.030610866001
O     -2.384912290995    -1.471799954277    -4.576980714195
C     -1.195065926625    -1.427371422101    -2.438865175324
H     -1.095286000175    -2.492751427417    -2.710928719923
C     -2.202404144041    -1.363718008846    -1.314364426168
H     -1.849853581965    -1.984248044283    -0.464724309308
H     -2.324192588681    -0.326689093102    -0.954376451117
H     -3.186171970013    -1.746312610425    -1.656798835423
N      0.051021719830    -0.866255813303    -1.972608060224
C      1.275034364635    -1.250646573954    -2.270528330757
O      2.258342488104    -0.520584621480    -1.797748108800
C      1.577793632552    -2.445014807898    -3.079846895838
H      1.184937746779    -3.330226924545    -2.551619747886
H      1.104736217014    -2.321732828301    -4.068799007296
H      2.674467339586    -2.527902729243    -3.191367517757
N     -1.123578952255     0.466305524516    -4.247136732324
C     -0.488162825679     0.601801239975    -5.474836208115
C      0.170537525289     1.769991628708    -5.786871742631
C      0.179335285720     2.835314962476    -4.918225443420
C     -0.504669734255     2.735711764455    -3.737072850356
C     -1.216341157295     1.554650113284    -3.415488378108
H     -0.453200710676    -0.233489039951    -6.166738294660
H      0.682430285418     1.847065122330    -6.732146285730
H      0.694365531012     3.755562896763    -5.181284480059
H     -0.596682391336     3.570778299552    -3.072938315708
O     -1.933696360235     1.568221370372    -2.392331842605
H     -1.302112524627     1.921995205787    -0.759649568225

