# STO-3G

title

0 1
C      2.392109964206     2.600525164925     0.075798060219
C      3.417646526927     2.160111008293     0.951825365976
C      3.936731034845     3.001320235484     1.954724351530
C      3.447893871664     4.312359628514     2.106933960713
C      2.434541533583     4.772356457288     1.238887658710
C      1.917694782697     3.929648519914     0.242224268255
H     -2.689452438565    -2.602599049656     1.952953247314
H      3.821102817019     1.155258910013     0.831403053615
H      4.724581513829     2.634882705374     2.610138571585
H      3.850260918363     4.963942634182     2.879107213680
H      2.050422876061     5.785515803888     1.340920605687
H      1.122607979718     4.288728317579    -0.409568116144
C      1.827693195498     1.708508145717    -0.977567620965
H      1.675588956876     2.222889897802    -1.928803206332
H      2.419125015473     0.799057354436    -1.138244243687
C      0.465798422895     0.760790265213     1.385574033296
H      1.487856789744     0.484154641456     1.611932752822
C     -0.027044867396     1.827356467091     2.285028830395
O     -0.871761859333     2.643784029812     1.826046228508
O      0.553688605827     2.001317610660     3.553469487703
C      0.157959981716     3.180599994387     4.265681645096
H      0.680151333466     3.208878014087     5.246006521691
H      0.440482690615     4.095297073314     3.696341047800
H     -0.939399809434     3.181333648683     4.453502736417
Pd    -0.024311777113     0.860296126718    -0.605161416123
C     -0.896283197078    -1.913378615656    -0.543495181630
O     -0.015317268333    -2.220136559948    -1.426188752353
O     -1.605601736045    -0.840643863317    -0.481357302747
C     -1.010910541215    -2.935502245516     0.653891326595
H      0.016924573799    -3.156269379420     0.957964482916
C     -1.709348635784    -4.222091270129     0.273457244905
H     -1.739388072818    -4.899221011812     1.151892254569
H     -2.747210087796    -3.998534416662    -0.047102563175
H     -1.164620659802    -4.720875339445    -0.554479652139
N     -1.748173116840    -2.295594416852     1.748984803056
C     -1.362801869384    -1.093007446452     2.167008510669
O     -0.176427878363    -0.663958781364     1.911729900382
C     -2.294825564086    -0.277799999153     2.972028857485
H     -1.768431569927     0.020184410125     3.894191798389
H     -2.576127013975     0.600425719569     2.368564072973
H     -3.198580338373    -0.857538255647     3.227134466838
N     -0.480708965528     1.137239076596    -2.648057046535
C     -1.113377246942     2.308732295892    -2.968864508954
C     -1.214313545557     2.699723170978    -4.287619035171
C     -0.703976555867     1.907872428350    -5.293059358476
C     -0.101221280905     0.727392842843    -4.946681912367
C     -0.024241738602     0.356902852021    -3.586416820560
H     -1.509121870008     2.940887049899    -2.182051274763
H     -1.703702396180     3.629081825005    -4.530474919098
H     -0.784463233668     2.208083322836    -6.334578749765
H      0.299829463212     0.056060489133    -5.680131359860
O      0.549562280048    -0.807615300581    -3.377084249123
H      0.340389272967    -1.337947764435    -2.480614890763

