# STO-3G

title

0 1
C     -0.974044302267    -1.572767857132    -3.007494924518
C     -0.228078857508    -1.116218143836    -4.112705751126
C      0.663660407176    -1.985660484922    -4.774882103219
C      0.803879330935    -3.317141614359    -4.335093110887
C      0.048188101900    -3.779882602779    -3.237237306835
C     -0.840298220029    -2.908610036814    -2.576186591106
H      3.204432796156    -2.466282166449     2.488735607536
H     -0.349191760951    -0.091707258545    -4.461997859738
H      1.236850046644    -1.631730578723    -5.629363372953
H      1.488049761125    -3.990122780372    -4.847796938544
H      0.147443008899    -4.811480337342    -2.905689893000
H     -1.429684456875    -3.244005205296    -1.726875240296
C      1.183726648424     1.558059483663    -0.217119269375
H      1.222031963154     2.556516999868     0.209454580490
H      2.087058788620     0.965811873401    -0.120081959595
C      0.153057150236     1.157679064274    -1.053830482555
H      0.185160998008     0.215356021750    -1.576450835331
C     -0.941751658495     2.047850916276    -1.481573503995
O     -0.978585708971     3.242549513482    -1.081957565522
O     -1.861789611554     1.563453292121    -2.430358516102
C     -2.966429118999     2.432177845065    -2.719991659945
H     -3.636812609873     1.947821835970    -3.462149405171
H     -3.559824244410     2.636162389123    -1.798550084590
H     -2.611549560914     3.396971232810    -3.149421039694
Pd    -0.147152477790     0.364313508493     1.219877004022
C      0.494870141997    -0.258617284451     3.957541270880
O     -0.570629166917    -0.010170473355     3.189744176610
O      0.490621240262    -0.374324431596     5.197670934394
C      1.859891386215    -0.392970591432     3.163321211058
H      2.436715637307    -1.177941595565     3.675060292630
C      2.654365343523     0.892067769882     3.189158597837
H      3.595857420035     0.757232255871     2.617653603575
H      2.062990098298     1.709208926698     2.730792896857
H      2.901686858677     1.162939129433     4.237066824946
N      1.545351553404    -0.690178632676     1.752150983479
C      1.970877023478    -1.741048395127     1.135768034852
O      2.869452559821    -2.642944357140     1.585562440546
C      1.420821867221    -2.047968842917    -0.183763034616
H      0.320000228555    -1.997294306859    -0.116632913479
H      1.827814711539    -1.326960699273    -0.906193792940
H      1.725341107728    -3.069149001654    -0.479455779044
N     -2.033669063954     0.996896595293     0.982650677422
C     -2.637021884562     1.981642458083     1.708477131127
C     -4.008028337835     2.123648684090     1.649287878420
C     -4.776343077224     1.265192145627     0.892090146553
C     -4.155907687298     0.262642500654     0.190352062147
C     -2.749742237179     0.110345469895     0.272360151266
H     -2.037540838702     2.666345863601     2.296916879030
H     -4.478820332089     2.908945999261     2.216984464920
H     -5.856942105541     1.374769123551     0.860674607949
H     -4.706428582608    -0.454533655198    -0.381639889871
O     -2.206048947494    -0.857136363568    -0.350278002411
H     -1.663775706671    -0.927311145694    -2.469123018896

