# STO-3G

title

0 1
C      3.747341118016    -0.766863032074    -2.168070478197
C      4.647584663509    -0.503092109211    -3.219335690711
C      5.922549442121    -1.102153366683    -3.222668656118
C      6.296554131276    -1.965347818242    -2.172601511701
C      5.394958451845    -2.228707059543    -1.122206056254
C      4.118215954482    -1.631025579429    -1.117821405344
H      1.784652266032     1.863476014831    -2.195160540418
H      4.351022331779     0.166709268586    -4.022687022842
H      6.618090902575    -0.897333549765    -4.033533706080
H      7.281300493531    -2.427765867914    -2.173374572066
H      5.682556757526    -2.893625591297    -0.311001542234
H      3.422734554099    -1.833720737231    -0.307565723440
C     -0.885556369772    -1.922114287507    -1.159893058374
H     -1.867498358985    -1.636507728183    -1.524390568624
H     -0.819766670610    -2.393746701980    -0.185612244834
C      0.225092198679    -1.921672962926    -1.999068137698
H      1.160402481402    -2.337548791380    -1.652885840055
C      0.197045758457    -1.568198783725    -3.429304769142
O     -0.898823218137    -1.327153551436    -4.001344795478
O      1.415672708647    -1.538999391861    -4.125722978850
C      1.360977089160    -1.000137614601    -5.453701126742
H      2.377431250101    -1.019651105643    -5.901737594188
H      0.682436928102    -1.601426663642    -6.100286100912
H      1.013861198512     0.059005163364    -5.434495187404
Pd     0.348973383526    -0.091493467052    -0.609734635710
C      1.612336754603    -0.736677700899     1.863224116739
O      1.257931464405    -1.328602420389     0.697351573534
O      2.024292460926    -1.354981680259     2.859512414324
C      1.454622704737     0.825619901417     1.857985350689
H      2.270693736197     1.221551443005     2.475443850051
C      0.140334863712     1.262447294244     2.463752325533
H      0.086439442377     2.370906607748     2.468104395917
H     -0.702245383016     0.870709391984     1.859259621085
H      0.055041820791     0.889530792955     3.506031517331
N      1.458487629225     1.279029554321     0.453033314953
C      2.311934859606     2.100296298954    -0.110759495456
O      2.415844091032     2.321038829647    -1.389358755212
C      3.258029493991     2.873903066332     0.719648515870
H      3.820613628558     3.566784287579     0.066159003528
H      2.676739933895     3.456355348603     1.453398626531
H      3.965439956995     2.177916430533     1.201369635315
N     -0.765656558334     1.131540111009    -1.814643222470
C     -2.097649622432     1.271482228624    -1.537995664058
C     -2.931381047595     1.898794539178    -2.439519298778
C     -2.433149395491     2.397687035750    -3.623772474838
C     -1.091764151815     2.280190635495    -3.870129685580
C     -0.257533448110     1.643095076449    -2.922258488239
H     -2.501036534107     0.868625043552    -0.616623994916
H     -3.981867095873     1.988710467576    -2.219871298112
H     -3.087575527651     2.886560817403    -4.340104663900
H     -0.634364958521     2.669036324677    -4.755736349304
O      1.004052919357     1.597123071728    -3.194698941916
H      2.769007653213    -0.293550517105    -2.183787220338

