# STO-3G

title

0 1
C      0.696306566595     1.586553012550     1.296394066084
C      0.746812585820     0.419779366849     2.095908593486
C     -0.165228360013     0.245362555349     3.154988569528
C     -1.131336964008     1.237705261013     3.426522382504
C     -1.183747221361     2.405772970226     2.640820365607
C     -0.270100073778     2.579662122206     1.580355740931
H     -0.893745498206     0.870725587868     0.060778076679
H      1.503572757223    -0.334791549248     1.894178453812
H     -0.116178641095    -0.649303385556     3.771464542612
H     -1.831503391306     1.103482401285     4.247969256146
H     -1.923085260290     3.174026418881     2.854283103216
H     -0.290449472464     3.489516344712     0.983454334932
C      0.341083856425     0.372748232647    -3.421315575233
H      1.163985012410     0.433401762479    -4.125387898163
H     -0.371310342887    -0.434342924162    -3.558191426044
C      0.030054934023     1.443666565151    -2.586758215477
H     -0.881703503844     1.414281522888    -2.011517026122
C      0.667758941497     2.769648452213    -2.653620524273
O      1.471423020490     3.028133232395    -3.591232051113
O      0.183257643552     3.782913168121    -1.806764531396
C      0.897996368728     5.025001389046    -1.858428636164
H      0.445996417221     5.741297442914    -1.140016710510
H      1.965475569627     4.874411697051    -1.575626375125
H      0.844651150748     5.471508760437    -2.877139629999
Pd     1.237217619670    -0.367377652873    -1.506895550167
C      1.366175998506    -3.018210332796    -0.406337256443
O      2.133144586834    -1.921081191343    -0.531556573914
O      1.740211940218    -4.098398685169     0.085144110419
C     -0.094589665949    -2.865437355832    -0.977773984139
H     -0.740762434530    -3.517665111279    -0.378557060530
C     -0.165427465993    -3.296378191619    -2.426245703013
H     -1.189660655582    -3.131074036027    -2.818812108290
H      0.555436951547    -2.710461344079    -3.030821995276
H      0.085295826268    -4.374712656100    -2.511989425205
N     -0.458846664410    -1.433154556255    -0.919394475681
C     -1.544822430656    -0.937193154668    -0.428278093081
O     -1.719071764974     0.375558720244    -0.204431229350
C     -2.721965526583    -1.769343667254    -0.123547671540
H     -3.558229373850    -1.107545775771     0.169271368993
H     -2.995466430677    -2.333072441841    -1.030399539139
H     -2.478375166800    -2.436264234000     0.720769309999
N      3.057812390072     0.314427937393    -1.973981595185
C      3.940932768515    -0.561649662585    -2.539131110395
C      5.264014344953    -0.205228800358    -2.683732709102
C      5.714099029246     1.021501907959    -2.249315652203
C      4.827188346492     1.874504217143    -1.647405779880
C      3.470089456141     1.497314106263    -1.488674955293
H      3.593018982577    -1.522188322898    -2.900747309695
H      5.950017004148    -0.896923656768    -3.143158527281
H      6.757185936001     1.301714594362    -2.367960748390
H      5.126463408836     2.830463968987    -1.270642806496
O      2.711704358553     2.300551212722    -0.863013334838
H      1.432413218183     1.760911240454     0.510400533524

