# STO-3G

title

0 1
C      4.040086098890    -1.205507530987    -1.354239892374
C      4.749993774619    -0.485356245083    -2.336382040333
C      6.128122169333    -0.240363983084    -2.174072722722
C      6.797649694180    -0.717561740911    -1.028868115221
C      6.088529063648    -1.439870936275    -0.047765730123
C      4.710067943088    -1.685772014289    -0.209610314220
H      1.252788653218     1.494906488181    -2.816942908545
H      4.223482417746    -0.107099233375    -3.208686133827
H      6.673501600064     0.316341402735    -2.932645194655
H      7.862160473080    -0.531015477857    -0.903966298612
H      6.603707365441    -1.811416869867     0.835059701847
H      4.159269245338    -2.243112321314     0.543124384438
C     -0.930214338841    -2.260049024591    -1.525044358137
H     -0.145515978377    -2.886063067659    -1.112698459391
H     -1.883504095625    -2.266384364402    -1.006734798266
C     -0.798315027438    -1.611634219678    -2.742429834299
H     -1.633905092445    -1.075839590694    -3.165667334071
C      0.379083845639    -1.678256917140    -3.622899063840
O      1.486869234147    -2.052354745597    -3.148210042910
O      0.235184820164    -1.353224299427    -4.979487280795
C      1.446557447989    -0.995330737296    -5.657306537749
H      1.212249680559    -0.732472651819    -6.710747744205
H      1.908865409861    -0.099723439249    -5.178979011383
H      2.170833010723    -1.840540272808    -5.658788290906
Pd     0.066291542237    -0.268302295293    -0.957910945541
C      1.649234915616    -0.966578410694     1.319670358472
O      1.104940669303    -1.554497385198     0.231172305220
O      2.124170569581    -1.591042911477     2.285683509501
C      1.629905880163     0.603570345278     1.278156147558
H      2.575194864036     0.941512720230     1.720664912405
C      0.489713930897     1.177124754406     2.086775851942
H      0.532859731636     2.285501591803     2.049279922303
H     -0.477968068645     0.847439877647     1.658742275962
H      0.562344590720     0.844490197079     3.143454716557
N      1.418684942693     1.014231113155    -0.120328385724
C      2.267370131958     1.636482592980    -0.904939583924
O      2.142270690680     1.773079776295    -2.196397103540
C      3.477293412149     2.265030959287    -0.337078946465
H      4.009947074488     2.801328900234    -1.144317922590
H      3.161265880998     2.985432614926     0.435017735451
H      4.138367227960     1.478924731164     0.066636598167
N     -1.186292018344     1.112485555541    -1.808679970935
C     -2.369204216121     1.373642542258    -1.175952249165
C     -3.328682141646     2.145552968910    -1.797521871590
C     -3.097953500483     2.676268940267    -3.049188559477
C     -1.895090717088     2.426754272233    -3.653650781879
C     -0.922069155737     1.645228221432    -2.987633663984
H     -2.562415807608     0.949126633425    -0.198028069055
H     -4.263655597722     2.336801005233    -1.297929364705
H     -3.849845016441     3.286502429707    -3.542051447487
H     -1.637911769272     2.824005568056    -4.614185368085
O      0.205179888786     1.470821157191    -3.589690202204
H      2.976711862591    -1.397865407825    -1.472312956223

