# STO-3G

title

0 1
C      3.875790480734    -0.505192008726    -3.830860116761
C      4.016284414646    -1.515326703827    -4.802795728540
C      5.294107094098    -2.023382100148    -5.109382615699
C      6.428700063541    -1.515682646227    -4.444786246900
C      6.285358254251    -0.502021645155    -3.475598287501
C      5.008392068629     0.006757786311    -3.165970762506
H      2.729558145702     1.902911423004    -0.130538239937
H      3.133719644877    -1.899454632656    -5.310625860266
H      5.403617958236    -2.804520549499    -5.857806804717
H      7.415866052745    -1.906175954918    -4.681025790325
H      7.161241018612    -0.109643829253    -2.964580595248
H      4.873944462136     0.786955074313    -2.422310739916
C      1.976701298003    -1.690617225452    -0.967437668478
H      2.678076198002    -1.221691839025    -1.651032939008
H      2.378569681115    -2.032298371116    -0.018671511737
C      0.672153153700    -2.015360929558    -1.336182840642
H      0.059448168879    -2.576797759925    -0.647676305335
C      0.135733393768    -1.871355625364    -2.699323981327
O      0.874138054608    -1.430420592750    -3.623205008628
O     -1.229604845011    -2.120055188882    -2.914820190216
C     -1.694583115330    -1.949584611735    -4.261479992459
H     -2.781758808855    -2.177560699510    -4.307199939680
H     -1.544312533234    -0.900863629727    -4.604893572538
H     -1.166853648049    -2.644890382033    -4.953286639928
Pd     0.697831586589    -0.074556129100    -0.061000814926
C     -0.214192408915    -0.757215764782     2.550721073365
O      0.434993596498    -1.317227804311     1.501208456668
O     -0.613824137971    -1.391059360533     3.542005144925
C     -0.441924988318     0.794832804619     2.409732988308
H     -0.370170263345     1.217556851939     3.419923860100
C     -1.809401335130     1.115356030013     1.851373113344
H     -1.932136192950     2.216272118583     1.786458546048
H     -1.908738944145     0.686506272354     0.834140953375
H     -2.599495501795     0.697227446024     2.509614111481
N      0.551962875662     1.305768080619     1.447937415251
C      1.539220137722     2.136541305061     1.685701084432
O      2.557126707866     2.345363505885     0.899072356187
C      1.546852718613     2.938078553733     2.927378270382
H      2.397566512460     3.643386254131     2.887254573090
H      0.601491407307     3.502443582198     2.977532027745
H      1.677790675340     2.261131575995     3.788101094937
N      0.726455654080     1.160293785088    -1.693308810124
C     -0.411617697878     1.304444655327    -2.437114153528
C     -0.357482417124     1.923635970859    -3.669268190034
C      0.830063498124     2.434523443907    -4.146983749952
C      1.953517766070     2.310757099579    -3.372687182453
C      1.865741455678     1.684904871541    -2.106367891982
H     -1.348053416490     0.897658679539    -2.073479290101
H     -1.257900214611     2.024207314665    -4.251971500386
H      0.870513833657     2.942707529114    -5.106805883409
H      2.892059950269     2.749909786414    -3.649272746662
O      2.936237112634     1.681562222578    -1.379357491321
H      2.884765502752    -0.108384519388    -3.604821578394

