# STO-3G

title

0 1
C      4.296746111804    -0.528870326437    -1.837138649000
C      5.347607872889     0.399179852398    -1.687042125933
C      6.276076798229     0.257386217828    -0.636466488087
C      6.156590251057    -0.817322897679     0.268759465330
C      5.110832555290    -1.750374094618     0.117415462530
C      4.183444903948    -1.606948186303    -0.934877598693
H      2.059530529318     2.112624540853    -1.991144735488
H      5.430827024424     1.228866166437    -2.384597179824
H      7.087082452798     0.974208789845    -0.527421861786
H      6.874590787488    -0.931042028102     1.078196499384
H      5.016348878041    -2.583112600958     0.810587943164
H      3.377140383090    -2.328661891067    -1.040231283191
C      1.070183073815    -1.679675477388    -3.408163694345
H      1.339202086064    -2.571070000331    -2.850136917954
H      1.834092655273    -1.206582866330    -4.017479484548
C     -0.247947488686    -1.224095744042    -3.450406855618
H     -0.487575312652    -0.388382026453    -4.093501266679
C     -1.407206021016    -1.947238641282    -2.898552331686
O     -1.296643473097    -3.152969882352    -2.554115395172
O     -2.646572070698    -1.285009564920    -2.857159587448
C     -3.743380134841    -2.047740471854    -2.333502350463
H     -4.664484328453    -1.426313570706    -2.343319605412
H     -3.928476968013    -2.952941093664    -2.955874185314
H     -3.542954148336    -2.359540921916    -1.282831669668
Pd     0.858836818701    -0.130123759561    -1.770917292549
C      0.922343191568    -1.503436594246     0.753676725397
O      0.733228513134    -1.719126149310    -0.563617137046
O      0.908865554065    -2.400214677255     1.615037313062
C      1.129672995391    -0.005574629878     1.155087844968
H      1.890124856594    -0.003550879689     1.946258863770
C     -0.149077277636     0.592206537558     1.701550857441
H      0.027604401391     1.641581543774     2.013748678700
H     -0.930281055389     0.581049316823     0.913692227814
H     -0.501587822445     0.008027144068     2.577640286468
N      1.504965721955     0.791318527863    -0.030266136105
C      2.376505478224     1.754923485878    -0.081808390945
O      2.624579495481     2.438603390066    -1.187737912178
C      3.166386543356     2.157820265995     1.094369403345
H      3.810261988457     3.011245941280     0.813192764015
H      2.474166121443     2.462525752604     1.895330081877
H      3.802296021685     1.306661424678     1.395315032490
N      0.882632616029     1.568489429638    -2.987059012353
C     -0.221986281923     2.367452697430    -2.840024885367
C     -0.685006104211     3.116544439181    -3.899310448115
C     -0.037051438075     3.106736810579    -5.113447769665
C      1.061025599887     2.305974759569    -5.271108907382
C      1.522192397038     1.505135463708    -4.197608668311
H     -0.728306052279     2.410284077865    -1.882630261923
H     -1.551552703752     3.741804143698    -3.761804769989
H     -0.397084179073     3.717945076606    -5.936715239639
H      1.594930434668     2.250183116474    -6.197855148510
O      2.504954519871     0.751823713691    -4.415492906856
H      3.589343888749    -0.391979388913    -2.651886333449

