# STO-3G

title

0 1
C      0.546813123015     2.929985598713     0.804117600431
C      1.673473257771     3.669956196464     1.229546091977
C      1.539725954170     4.985804986641     1.709587296966
C      0.269404623253     5.590009405151     1.771575550533
C     -0.862068365953     4.868246325197     1.345603095228
C     -0.720925349083     3.552328804947     0.868001837044
H     -2.334320588872     0.972894737231     0.859793990867
H      2.660901092137     3.211200000259     1.180374901251
H      2.421609695717     5.535960159626     2.029319628443
H      0.164133915955     6.607819313349     2.138793333469
H     -1.845606244876     5.331045730902     1.378332684412
H     -1.605605049776     3.022511640305     0.518796493010
C      0.703567283142     1.496231044799     0.331247918263
H     -0.013208902245     1.233067197137    -0.454969929373
H      1.700452976509     1.337824693193    -0.093161924876
C      0.474102858898     0.492366540688     1.492102430909
H     -0.486229872728     0.710825742447     1.952060321042
C      1.495501156440     0.421000336318     2.581395187512
O      2.703698492518     0.709708879130     2.346279552904
O      1.064562310526     0.106483039519     3.886607414603
C      2.089200315128     0.067847328393     4.888697057835
H      1.636161837058    -0.193622516958     5.868465004803
H      2.853512759429    -0.702902073529     4.639634821344
H      2.582960656990     1.061313630078     4.985011216934
Pd    -0.768312112470    -0.627265963829    -2.243484454742
C     -0.728595990520    -1.742786524679     1.041950265956
O      0.364653340168    -0.864319207667     0.872052252784
O     -0.531251851490    -2.945439472857     0.898137661914
C     -2.094242861362    -1.066128321845     1.375740698232
H     -2.008996576218    -0.641155962117     2.386042427773
C     -3.238477092235    -2.059297324771     1.404314731175
H     -4.192817755688    -1.524711209904     1.590033792659
H     -3.308291552057    -2.603760117860     0.441790734237
H     -3.075707085362    -2.798780594732     2.215833034358
N     -2.419531012212     0.040533284620     0.476254422291
C     -2.579463764644    -0.077845720016    -0.891772162969
O     -2.662902411409    -1.220896144546    -1.498888290661
C     -3.047732317985     1.134678318791    -1.586385189866
H     -2.247609621546     1.894055266701    -1.565611210145
H     -3.339500120243     0.878263368593    -2.620088131164
H     -3.934134875428     1.511277833079    -1.041743904089
N      1.088953058178    -0.014770912350    -2.938548636346
C      1.162995664690     0.588008094934    -4.168355427027
C      2.389715198400     0.838721064738    -4.745799194808
C      3.553913933550     0.494336163965    -4.092991901049
C      3.452501841610    -0.102045200873    -2.864942292006
C      2.179094342336    -0.339157527130    -2.312243177283
H      0.253774670689     0.864400067759    -4.689610172336
H      2.438720007373     1.313450571227    -5.712870601400
H      4.525472824521     0.694016003309    -4.537915246651
H      4.315996512878    -0.384674918384    -2.292893074686
O      2.217285852764    -0.898368138785    -1.104607408203
H      1.340063845200    -1.020227096637    -0.641927760863

