# STO-3G

title

0 1
C     -1.208499255619    -1.524440602882     1.663990175411
C     -0.724977797869    -2.314601122655     2.725503535230
C     -1.469079478554    -3.422067289076     3.177961810949
C     -2.699154683324    -3.739062571531     2.567138834523
C     -3.186512266606    -2.942812921185     1.511034783401
C     -2.443402974070    -1.834331979420     1.058649966530
H     -0.631340678554    -0.673967253834     1.307688791417
H      0.221905075547    -2.064123216837     3.201348073104
H     -1.094788904207    -4.028469658733     3.999923381904
H     -3.274487631888    -4.594088212874     2.915320679296
H     -4.140325163016    -3.181715363422     1.045973892581
H     -2.817625758927    -1.197106983631     0.261300076837
C     -0.078385347369    -0.946405644308    -1.507702663215
H     -0.363216612361    -1.902391826480    -1.079024740270
H     -0.815678450831    -0.150481702433    -1.411112244484
C      1.044930845605    -0.799379040797    -2.340529642231
H      1.189809558249     0.147273248390    -2.844236474321
C      1.913039531730    -1.899955736234    -2.795675669795
O      1.654701701115    -3.087229934959    -2.461797191190
O      3.021045115351    -1.593924773973    -3.603295508608
C      3.838970669448    -2.705193842930    -3.995261001231
H      4.677738861547    -2.339512198737    -4.626038763748
H      4.270718743297    -3.212599070138    -3.102779187487
H      3.250259632539    -3.439149194628    -4.591123487462
Pd     1.554397738729    -0.155547424657    -0.234338995941
C      0.461328376020     2.356283421624    -1.611734859788
O      1.024893958029     1.737607590229    -0.576433267748
O      0.706652113644     2.166232637178    -2.826984131572
C     -0.624802584106     3.387576686661    -1.165193957850
H     -1.444628097953     3.280330446304    -1.884105017330
C     -0.117935009722     4.812582479953    -1.207010284597
H     -0.921910489917     5.508830038242    -0.889178024752
H      0.757692716467     4.924724020829    -0.534428424225
H      0.190006040519     5.071604518236    -2.242084828625
N     -1.123949384094     3.111903955783     0.175970460783
C     -1.859076665057     2.003632273288     0.425095355260
O     -2.191938329559     1.155682370614    -0.443776962480
C     -2.288325141345     1.827382073614     1.827493723198
H     -2.871896491912     2.713959181624     2.129659120525
H     -2.925177785404     0.926286432570     1.890057524156
H     -1.394330037969     1.695431321160     2.463100883456
N      2.165508843930    -1.857842640964     0.705632817235
C      2.059673456338    -3.218031712614     0.740780950364
C      2.581508609030    -3.910101829564     1.820635306342
C      3.207161896178    -3.243518413787     2.858987791993
C      3.281014883096    -1.873269617951     2.815219637264
C      2.729215473204    -1.202118596792     1.705680301737
H      1.564904535975    -3.751973760607    -0.059377603338
H      2.497423062465    -4.983911265653     1.843640234195
H      3.618779882014    -3.793219132196     3.700995713327
H      3.730296512739    -1.287499895574     3.590294558622
O      2.716562165264     0.100701127733     1.643037042240
H     -0.673818489259     3.557418669524     0.963462662122

