# STO-3G

title

0 1
C     -0.363822012096     1.315035798357    -2.813304032778
C     -0.888831842860     2.614781295466    -2.961794407133
C     -0.111683188994     3.625680785037    -3.560448762575
C      1.191151289121     3.336158170495    -4.014058586040
C      1.715425795136     2.035577643187    -3.868578409997
C      0.939021557250     1.024244985743    -3.268426540206
H     -0.974082491842     0.538308063127    -2.362165129958
H     -1.897457660043     2.828550016794    -2.613787709135
H     -0.520647801764     4.626802858393    -3.679243008997
H      1.789553165436     4.114446710193    -4.482580707946
H      2.718135063869     1.810631915503    -4.224907873841
H      1.343480264850     0.020768893329    -3.157248518980
C      1.316419442376     0.881901042449     0.484919924326
H      1.592325695684     1.929946777118     0.530894384403
H      1.595744940016     0.319292923224    -0.400151136901
C      0.845024026543     0.167204149481     1.599621918977
H      0.739492365321    -0.904416132692     1.505224217399
C      0.731203166045     0.699350325778     2.967639905518
O      0.278159100577    -0.049407626677     3.871592677574
O      1.107645554981     2.027491672671     3.237635170176
C      0.934992306061     2.462930608048     4.593826831141
H      1.268418457417     3.518631424886     4.688788111440
H     -0.136464669227     2.407516515922     4.893654440725
H      1.545388788553     1.842939532915     5.289501430992
Pd    -0.883725475402     0.832850200002     0.337423815349
C     -0.160231872434    -1.849142220291    -0.992437037869
O     -1.032704480833    -0.980929619237    -0.461824075289
O      1.086133894331    -1.809288153324    -0.856181337434
C     -0.881791186037    -2.923710944901    -1.840098643961
H     -0.590047710396    -3.917072910763    -1.476148219304
C     -0.500535357774    -2.821406409618    -3.303731730618
H     -0.982266095189    -3.644156421416    -3.872848506937
H     -0.847425632135    -1.852349691844    -3.717948857768
H      0.600073742204    -2.904880116323    -3.422476308873
N     -2.323175074655    -2.737469654931    -1.718528951015
C     -3.199526182858    -3.749156072899    -1.909347345474
O     -2.889091777383    -4.907764572037    -2.278462293841
C     -4.613406660058    -3.406662382948    -1.653053601078
H     -5.230379426412    -4.301317004388    -1.854476336785
H     -4.714017763821    -3.109022349791    -0.595288704350
H     -4.906179629403    -2.584358072123    -2.329661937137
N     -1.341142891691     2.734735506888     0.907284224154
C     -0.875114920921     3.887492193888     1.467684311908
C     -1.694054270601     5.002556203883     1.506448051193
C     -2.974670424452     4.963310469444     0.982772428786
C     -3.419127384872     3.797505197234     0.409808444271
C     -2.555705105829     2.684662402258     0.385400451628
H      0.128692268921     3.934208137545     1.869392567548
H     -1.324348424869     5.912215174025     1.949866022264
H     -3.613628294197     5.841668707659     1.016272904458
H     -4.391326832123     3.696081655406    -0.026688407743
O     -2.913205989689     1.564949948534    -0.179961723681
H     -2.596268470831    -1.849987477927    -1.306956142035

