# STO-3G

title

0 1
C     -1.376930616211    -1.206433455888     1.360103923839
C     -0.503868026223    -1.846825853524     2.265232751592
C     -0.958133439775    -2.940208348042     3.028950386896
C     -2.286005868514    -3.395022121201     2.895828919926
C     -3.162567311795    -2.752516068978     1.999253374083
C     -2.705981336427    -1.660531781964     1.233481298163
H     -1.004088316851    -0.371424476606     0.771998724494
H      0.515518952136    -1.483412200221     2.380607037545
H     -0.282788808842    -3.429666724181     3.727753498327
H     -2.635496923563    -4.236996823910     3.489670222067
H     -4.189652527279    -3.097452096967     1.899451503515
H     -3.383562721411    -1.174019075757     0.532844336154
C      1.715954648726     0.225989864750    -2.207361903091
H      0.875057957148     0.912675369444    -2.246584454856
H      2.668085374846     0.606453341717    -2.563967030865
C      1.539777461414    -1.143785737936    -1.961405460425
H      2.370177270406    -1.817751368261    -2.095690538300
C      0.246898111465    -1.831287920411    -1.787190370237
O     -0.833329972390    -1.184685504864    -1.827922908401
O      0.256813669056    -3.231870379204    -1.672666377275
C     -1.009082575633    -3.853029205830    -1.411522370376
H     -0.874411910246    -4.954709298949    -1.361153808309
H     -1.417835737562    -3.516043558318    -0.433520857180
H     -1.739533222304    -3.627474983055    -2.220959181351
Pd     2.148787123845    -0.128531536560    -0.036666258462
C      0.654285823812     2.286321625006     0.104022935666
O      0.490699993972     0.956886502975     0.191688161898
O      1.761621915425     2.864037901052     0.016866288002
C     -0.695720432403     3.050144364944     0.093124715505
H     -0.543141572031     3.914675372343    -0.562386153434
C     -1.085487333884     3.536340060611     1.472363748625
H     -2.051031163136     4.081378901038     1.422306693854
H     -1.181002094344     2.673800063224     2.165139034516
H     -0.306313035778     4.224434386467     1.862973451725
N     -1.787056943423     2.237343602021    -0.433420013268
C     -1.774189704951     1.852970220202    -1.735567736569
O     -0.862923150509     2.148373253773    -2.550328768310
C     -2.957499848621     1.095490533532    -2.191126590749
H     -3.852165986017     1.724409988659    -2.050281622335
H     -2.818305253006     0.857693490120    -3.261157947586
H     -3.022143314018     0.156235326797    -1.616004356339
N      3.840260952615    -1.264607870043     0.202401934599
C      4.856931336923    -1.930831328246    -0.415609461250
C      5.873390346225    -2.479532544708     0.346176553192
C      5.873890787532    -2.356392950436     1.725083932109
C      4.847386483499    -1.672856914569     2.327876733644
C      3.833389466703    -1.123599057577     1.518269556024
H      4.863083388758    -2.034328975440    -1.494196917984
H      6.673688740974    -3.008847174504    -0.143968656425
H      6.674789485276    -2.787835829443     2.319410788208
H      4.785993670756    -1.524584674486     3.386333080421
O      2.849268265772    -0.444070850147     2.036419922459
H     -2.376312338800     1.718980716256     0.203310606322

