# STO-3G

title

0 1
C      0.795252343576     0.037191417114     2.028447057232
C      2.120618806091    -0.383445802936     1.796926215728
C      3.175227711563     0.144167581544     2.568953096641
C      2.906018604785     1.094687623308     3.574886683548
C      1.580364628256     1.512501364547     3.809750641236
C      0.525361417218     0.982144752248     3.040041069849
H     -0.012008569831    -0.380114378202     1.436367759842
H      2.314885150267    -1.104055191753     1.006528308658
H      4.197325224237    -0.182792544837     2.388451151084
H      3.718965007444     1.500460261587     4.173885844826
H      1.368490632656     2.239834872080     4.591437173504
H     -0.500807461649     1.292079873425     3.228999412966
C     -1.470322164481     1.258876022070    -1.889242509836
H     -1.702219872657     2.252464618099    -2.261324817056
H     -2.112737778623     0.435472104029    -2.193979016506
C     -0.245908298894     0.973121931274    -1.259830579878
H      0.017814390590    -0.054875662270    -1.047036139995
C      0.852772933849     1.940082440638    -1.077413813744
O      0.685523081748     3.147022559756    -1.401272109507
O      2.110617827317     1.468800855103    -0.671698568688
C      3.059577700999     2.471142311325    -0.285524441844
H      4.001605708874     1.976706303777     0.033836616071
H      3.289998946355     3.151148659202    -1.136341921747
H      2.674738167485     3.061821382206     0.576872905909
Pd    -1.929192581625     1.286335143475     0.270433816479
C     -2.306814428786    -1.633216964288    -0.410475239355
O     -2.038824240506    -0.700990962113     0.490335986783
O     -2.760261120590    -1.442827489509    -1.570272180242
C     -1.991630856729    -3.102929838066     0.024910843946
H     -2.921476766293    -3.668948260937    -0.108098763356
C     -1.506726935539    -3.274175851350     1.448804796046
H     -1.344933061496    -4.349439489534     1.666872115413
H     -0.549795084899    -2.731246665657     1.590674578783
H     -2.257407065890    -2.866738171219     2.157691223432
N     -0.994539828566    -3.679631062789    -0.887385277412
C      0.169368898034    -3.070405161397    -1.208867166669
O      0.537864372395    -1.957921290601    -0.752336826322
C      1.056450550118    -3.768681906538    -2.164434065449
H      0.646060956991    -4.741171521460    -2.481549343335
H      1.184973179773    -3.102848572823    -3.035905627686
H      2.031773064268    -3.915311824076    -1.666565242090
N     -1.967745343653     3.293633742517     0.638825746759
C     -1.657565993161     4.536368978161     0.169065341947
C     -1.933025323908     5.645456967712     0.951143926307
C     -2.512178432793     5.508978645010     2.200532374566
C     -2.820608314631     4.249938258379     2.652394952729
C     -2.531214293979     3.145982727665     1.825671537104
H     -1.220865979877     4.658225466878    -0.813635560426
H     -1.687813616489     6.625155333566     0.576514730405
H     -2.722862330400     6.382602011715     2.811177108768
H     -3.272692365982     4.064875333046     3.604625360348
O     -2.800507582247     1.927915475211     2.206392390292
H     -1.293674406831    -4.495865993183    -1.396254616467

