# STO-3G

title

0 1
C      0.966019637425    -0.233700574109     1.720138805206
C      2.337406797080    -0.479696973690     1.501455308489
C      3.271228278175    -0.271722311779     2.535874657997
C      2.833829629574     0.182314109628     3.796087163841
C      1.463612822616     0.428776783012     4.016414515997
C      0.529740548609     0.220898403393     2.981907310601
H      0.240080142848    -0.403893677962     0.928975830807
H      2.678202487706    -0.824112271500     0.526958582207
H      4.327746493351    -0.463248821565     2.362045239286
H      3.551824912358     0.342491886097     4.597643776770
H      1.122882886059     0.782069864965     4.987516497320
H     -0.525273244223     0.423383995252     3.148418705624
C     -1.426053632229     1.838914771943    -1.959669190257
H     -1.508840808139     2.911435713410    -2.108282445997
H     -2.258910066426     1.227138393696    -2.295214818290
C     -0.213517535184     1.233898022361    -1.588661051144
H     -0.134208421401     0.154358749690    -1.617759389795
C      1.061636780640     1.951126562307    -1.409226614815
O      1.095224870243     3.207537258769    -1.504394747097
O      2.227200088880     1.208823560734    -1.155824842059
C      3.403984555083     1.973400578055    -0.859480037327
H      4.254292618081     1.283013222455    -0.674176610405
H      3.672427461479     2.636169777283    -1.713271091959
H      3.252327655315     2.587924223800     0.057290270942
Pd    -1.600709863875     1.519172728599     0.216886115542
C     -2.799695847006    -0.979191415721    -0.878624771791
O     -1.981728301906    -0.430955907463     0.018294134982
O     -3.595129091270    -0.370242010303    -1.634196783960
C     -2.652171336146    -2.527336386957    -0.958322424394
H     -2.657008807888    -2.758013190181    -2.030616100879
C     -3.813670509540    -3.242554047041    -0.301542614535
H     -3.687190711130    -4.340918966275    -0.399911959208
H     -3.868782426604    -2.968582802132     0.772729280173
H     -4.764503486166    -2.948757692782    -0.794671062950
N     -1.412624486481    -3.016867659137    -0.368071562204
C     -0.212844617524    -2.681298371982    -0.897557632015
O     -0.057474782184    -1.910868342824    -1.879562726322
C      0.963542153029    -3.302872961015    -0.255864524047
H      1.870569805208    -2.955446044722    -0.783632493491
H      1.001312892635    -2.988815419981     0.801257459179
H      0.875125033362    -4.399793474531    -0.344479987113
N     -1.270630801346     3.401844469192     0.938894741509
C     -0.769050901945     4.643061541170     0.676573974023
C     -0.803432977309     5.611266643715     1.665890640274
C     -1.335147558937     5.335047106242     2.913388258736
C     -1.837580132155     4.080443944896     3.155076320071
C     -1.788387285459     3.123214613516     2.122171487446
H     -0.363993241467     4.875582504834    -0.299788639793
H     -0.407912928596     6.590839980343     1.455181122253
H     -1.357517762304     6.098047141758     3.686598660994
H     -2.266329148072     3.793405935849     4.092537399965
O     -2.246837496869     1.914185128533     2.299610980399
H     -1.426124648470    -3.423192134592     0.556198404739

