# STO-3G

title

0 1
C     -1.120181826803    -0.915126816174    -2.128747696458
C     -0.787533011829    -1.018760056444    -3.494742589019
C     -0.979815333589    -2.234632742687    -4.179917195637
C     -1.508415670489    -3.349448181828    -3.498230794222
C     -1.848518833704    -3.244170928050    -2.134196110207
C     -1.655639478337    -2.027785323822    -1.448917195984
H     -0.958615464623     0.023427682253    -1.601860632919
H     -0.385748516818    -0.148526760454    -4.009778797373
H     -0.727456357454    -2.308287807800    -5.235452726925
H     -1.663824743113    -4.287245667182    -4.027292132808
H     -2.269211174531    -4.100092844158    -1.610818376513
H     -1.924547826204    -1.927956009189    -0.400945085621
C      3.236474062838     1.106075336542     0.100148016693
H      1.363507007097     1.339903759768     2.153316525019
H      3.798807885154     1.674770631361     0.846743267145
C      3.697512703966    -0.048285942921    -0.440638704708
H      4.641696862310    -0.488749803891    -0.144031439233
C      2.918016126439    -0.809928037324    -1.426167800132
O      1.763953536423    -0.403424030596    -1.719296019062
O      3.389960214081    -2.056030842902    -1.868720652740
C      2.497576098941    -2.783715747064    -2.727808904698
H      2.963767130161    -3.750176764168    -3.015670431955
H      1.534284698212    -3.002960767837    -2.210395334104
H      2.282993625570    -2.208709160539    -3.657438790173
Pd     1.439110061544     1.834298732992    -0.382984591294
C     -1.230147080124     2.843196575905     0.481868366043
O     -0.564999133446     2.520245960215    -0.633113026581
O     -2.326979986011     3.417806636925     0.551328903431
C     -0.444309811643     2.466393106686     1.790771378400
H     -1.194120958819     2.136114103380     2.518627309093
C      0.312897161235     3.656620186066     2.341285388440
H      0.791798481159     3.385432495243     3.304809439650
H      1.092710331249     3.974023547922     1.620766958099
H     -0.386953517165     4.500400570696     2.519009926445
N      0.549367940391     1.362522313427     1.538947839719
C     -0.058815993646     0.086125883424     1.348044696450
O     -1.272118297119    -0.056836972937     1.170144355866
C      0.816378500393    -1.101185452625     1.402181563943
H      0.726237356472    -1.622560680214     0.433119637303
H      1.859804120498    -0.811243636419     1.597358949698
H      0.445819908344    -1.753969788527     2.211459481079
N      2.061485039843     2.470271828856    -2.270084258269
C      3.383650129190     2.612150534929    -2.605018685568
C      3.754699779850     2.808757902887    -3.918441786659
C      2.805232829004     2.876822593545    -4.910988705997
C      1.489701834719     2.761021868727    -4.557284990665
C      1.138654900162     2.560978471552    -3.203384986745
H      4.149919687163     2.585053202939    -1.841887639096
H      4.798167921020     2.913707027989    -4.166225557233
H      3.091737725637     3.032676958924    -5.947692902272
H      0.700008014534     2.824212288612    -5.279723615109
O     -0.154664788542     2.503940888180    -3.008547287823
H     -0.511648265457     2.516107545722    -2.009230626533

