# STO-3G

title

0 1
C      2.551385369443     2.111041942869     1.767756365742
C      3.469025349723     1.483488045447     0.895533803622
C      4.496324923142     2.222915607334     0.282879600019
C      4.628704364492     3.602520296747     0.533515634565
C      3.721904816363     4.238324004162     1.402164918703
C      2.695491896513     3.494696313602     2.014373172758
H     -0.862690859936    -1.756894430497     3.102722712878
H      3.363865532069     0.423628013640     0.681529344211
H      5.185660908624     1.724515235362    -0.394778259246
H      5.423604699949     4.172579620757     0.057884854457
H      3.813675766320     5.303348535192     1.603858432362
H      1.996390684490     3.994489220082     2.684603241280
C      1.436439960393     1.325952275345     2.436795492892
H      1.819244272064     0.367280297247     2.807019074479
H      1.052989968408     1.886646419016     3.300056053376
C      0.236821690572     0.958386313359     1.533364856637
H     -0.450891668665     0.369964765288     2.131863529622
C     -0.571420565102     2.048943720542     0.921028187986
O     -1.612676943822     1.709426814325     0.284875743187
O     -0.404510253245     3.377849953815     1.350611125348
C     -1.151488776520     4.364305066376     0.627817781203
H     -0.912206804268     5.370988602309     1.032572490333
H     -0.875070837119     4.352000889227    -0.451050714883
H     -2.246063755139     4.195151695099     0.738434182792
Pd    -1.747860316722    -0.342661861302    -0.816111318565
C      0.032540573292    -1.237137762412    -0.078329034732
O      0.782101020361     0.034582185929     0.506210071607
O      0.707640851785    -1.717835436844    -1.032922705089
C     -0.332176011536    -2.227559349605     1.106691886804
H      0.634275586879    -2.424357648619     1.589371740867
C     -0.884746721857    -3.541799426797     0.588134761752
H     -1.052952854620    -4.232085042655     1.441215074977
H     -1.848816013147    -3.382094713918     0.066649549520
H     -0.162552075110    -4.017488660979    -0.108439681205
N     -1.235276338500    -1.737842832573     2.162349006933
C     -2.471169956268    -1.261845777591     1.923112649519
O     -2.953708208766    -1.099188220308     0.763312255237
C     -3.317506158328    -0.904297850343     3.076768586036
H     -2.789640311137    -1.103559219257     4.025546111731
H     -3.558419271204     0.168976626843     2.993171695185
H     -4.239068093247    -1.509340644326     3.023452721927
N     -0.909196076216     0.594550764297    -2.512203028833
C     -1.757194511450     0.566949165440    -3.588128655424
C     -1.424392854926     1.220563811688    -4.755551638869
C     -0.233903468657     1.904509609920    -4.855714021629
C      0.599215418115     1.912901675382    -3.770621865647
C      0.225988761755     1.226401445182    -2.593767431706
H     -2.698607765386     0.034657259651    -3.517680382394
H     -2.100982237133     1.193814832553    -5.594007809419
H      0.038227879993     2.422197138755    -5.771716954951
H      1.544301955428     2.420017663382    -3.780269023615
O      1.129362442982     1.315231606277    -1.637182716377
H      1.035069227505     0.716075437672    -0.799103098796

