# STO-3G

title

0 1
C      2.534485429366    -0.715898027534     0.493409496382
C      3.017870036179    -0.871346093173    -0.822067365036
C      4.162971721712    -0.166863525254    -1.245181793086
C      4.830683729879     0.693912299105    -0.351246209459
C      4.355249522708     0.844018070005     0.967142556250
C      3.210622846465     0.138780906066     1.388265417161
H      1.650729551991    -1.252569078573     0.827364069400
H      2.512781587924    -1.544795118637    -1.511825141290
H      4.534137714734    -0.290093961057    -2.260168329506
H      5.714911592240     1.237525518968    -0.676467466788
H      4.874146447038     1.501188671069     1.661732859995
H      2.843997073902     0.239866638925     2.407367783797
C     -0.714141688828    -0.259302354160    -0.919687937324
H     -0.692569632397    -0.159609949756    -2.006197144920
H     -0.067165337963    -1.056157544691    -0.571289023645
C     -0.375977665278     1.017515160479    -0.141959364211
H      0.621518472889     1.006780443851     0.276632639493
C     -0.784914169233     2.334765042588    -0.642338668623
O     -1.821110732271     2.825403354938    -0.111787454609
O      0.209770957474     3.179110390026    -1.162129001656
C     -0.228692403860     4.487337658678    -1.552346806475
H      0.629843869316     5.048890343671    -1.979520188677
H     -1.022955567966     4.421210884731    -2.330600434483
H     -0.612184644479     5.055929068373    -0.675321498060
Pd    -1.776948956752     0.682745185625     1.303764173407
C     -1.539915407032    -2.432442718051     1.292546631041
O     -0.470016209407    -1.680365765955     1.504280012525
O     -1.939796088076    -3.404762277754     1.968152783041
C     -2.396513361192    -2.019675378532     0.031176085358
H     -3.427639008127    -2.100956846963     0.391979670265
C     -2.223232643804    -2.990280743097    -1.124433474221
H     -2.886252317577    -2.704963759354    -1.966140655697
H     -1.173840597755    -2.972627342466    -1.479611948946
H     -2.476967898470    -4.020831967552    -0.798850279067
N     -2.142929514281    -0.612594448780    -0.465120066174
C     -3.122862579717     0.062421068140    -1.240482277039
O     -2.814253358598     0.824578398219    -2.172712031185
C     -4.546560404866    -0.104124726495    -0.872152030310
H     -5.136238700694     0.630029335016    -1.451721091846
H     -4.866389884055    -1.121408194331    -1.148850909696
H     -4.663623962137     0.092135811819     0.206491585510
N     -0.775446201321     1.590418517823     2.829210312598
C     -0.971984321080     2.915081556927     3.109907597977
C     -0.292089577663     3.506343793616     4.152754959590
C      0.591560806312     2.777594542664     4.916660472282
C      0.780488923647     1.455561570701     4.612986314363
C      0.076502541276     0.870592077215     3.536157712632
H     -1.669352021735     3.496128437439     2.517740773487
H     -0.455261246126     4.549776770146     4.367644820787
H      1.129615794036     3.241455935725     5.739183721098
H      1.460782090344     0.838966143720     5.166508133335
O      0.364050101461    -0.377532975337     3.329789393699
H     -0.067091068337    -1.058201395246     2.504789103646

