# STO-3G

title

0 1
C      2.321061356839    -0.592337036663     1.072852949972
C      2.756777687949    -1.448668438214     0.041456533911
C      3.848156952898    -1.073188063675    -0.767605715949
C      4.505632348020     0.153845721342    -0.544282242120
C      4.077959570093     1.004013382594     0.495588907540
C      2.987088190557     0.628123785623     1.304573292864
H      1.488441409466    -0.887167505926     1.703213306594
H      2.248244662390    -2.397788498284    -0.105902682454
H      4.189376114017    -1.735097955095    -1.560521780328
H      5.349162521546     0.441261549759    -1.168160820496
H      4.592319969160     1.945256690468     0.677037364457
H      2.663511598041     1.274827729029     2.119576598002
C     -0.583335081698     0.017573298155    -1.008173232179
H     -0.562244899217     0.142975154554    -2.092895580957
H      0.160975149426    -0.715114748499    -0.697640459593
C     -0.398078041462     1.303985748529    -0.184335462674
H      0.618043374326     1.411854670826     0.173068468908
C     -1.000528663588     2.568268305015    -0.619396267281
O     -2.070939754589     2.893716547635    -0.034558864593
O     -0.141198585224     3.563243544784    -1.113728846031
C     -0.771271030597     4.801022167869    -1.470852719467
H     -0.008305384999     5.495382632397    -1.883928797245
H     -1.549524817168     4.636396860459    -2.250947088600
H     -1.233672559334     5.284049113065    -0.580581049668
Pd    -1.623337964211     0.603380050546     1.295925164645
C     -1.055390127483    -2.339751102406     0.921166157965
O     -1.411007536690    -1.733765693244     2.057687006099
O     -0.050044961600    -3.064063248070     0.747455277404
C     -2.060323008206    -1.993232614742    -0.231866588713
H     -3.053715071237    -2.201523356574     0.181794421213
C     -1.853292478561    -2.814635779968    -1.491191237365
H     -2.605970755689    -2.539415112106    -2.257190448087
H     -0.841315254809    -2.624286137125    -1.902730120755
H     -1.948904986480    -3.895586034044    -1.259649916126
N     -1.962243606339    -0.522464026441    -0.575733042771
C     -3.027727910625     0.105643711956    -1.273467309859
O     -2.824625444112     0.940170443828    -2.170517816155
C     -4.412996188430    -0.204287114055    -0.855856650406
H     -5.087470328650     0.517234568980    -1.352595039097
H     -4.663945369739    -1.223466834895    -1.189306845453
H     -4.488468987427    -0.092776375878     0.238887296184
N     -0.667407410236     1.487459812379     2.866720273034
C     -0.625011104703     2.846601359710     3.021200840345
C      0.119729937475     3.401172079579     4.040123167716
C      0.818312709856     2.600197885370     4.915411339956
C      0.753415103751     1.242497184899     4.749687940356
C     -0.015868586577     0.696965660463     3.698147505793
H     -1.172326074350     3.488162586619     2.341811744111
H      0.151120313737     4.472959063378     4.149961542554
H      1.406616837131     3.034904368249     5.719271478292
H      1.276024544307     0.565934994102     5.396958931777
O      0.008206792073    -0.601243828527     3.632696261898
H     -0.620842693852    -1.219631510309     2.898427627236

