# STO-3G

title

0 1
C      1.282110654676    -0.318307483282    -0.988177329346
C      2.122189389321    -1.454187416577    -0.867514057343
C      2.868399097950    -1.912578446040    -1.977180404943
C      2.773697940846    -1.261743471293    -3.219929228843
C      1.936270235880    -0.134989209621    -3.350641836388
C      1.203310797973     0.336464739232    -2.244446414418
H      2.705615685236     0.280869243966     0.270853229214
H      2.195809162416    -1.976595771578     0.085865797644
H      3.516341270303    -2.779161051130    -1.862716251411
H      3.343124548016    -1.622075708910    -4.073335387610
H      1.855360887816     0.377195582242    -4.307224695734
H      0.562634062365     1.207624390108    -2.367769229603
C     -1.381879414650    -1.025343903922     1.251637208804
H     -2.236342537249    -0.365610295074     1.346580861431
H     -0.899061782919    -1.302370159799     2.184489301082
C     -0.976684242593    -1.591711754319     0.052018472631
H     -0.186294991557    -2.321782242511     0.052147609514
C     -1.659493286664    -1.396375384837    -1.236581138818
O     -2.302625863662    -0.329931555918    -1.429794142423
O     -1.363136609600    -2.273056550386    -2.292996136198
C     -1.864750098628    -1.896168647755    -3.582457816395
H     -1.571142847923    -2.664883159010    -4.329308761207
H     -2.976053403025    -1.825419032890    -3.571615115695
H     -1.431814415062    -0.921365962932    -3.903038520173
Pd     0.103159371634     0.483495212560     0.497512180035
C     -0.812308820973     2.895051917007     1.891844093898
O     -1.068276201282     1.590835845129     1.866730315031
O     -1.415396447042     3.760852400540     2.561200871754
C      0.379907669414     3.346108267922     0.951934152051
H      0.866552848607     4.202070692815     1.436634594166
C     -0.117262266974     3.772073656753    -0.410137341830
H      0.743555225539     4.052250581590    -1.051823507935
H     -0.667448272914     2.935940827743    -0.888480045335
H     -0.796979343068     4.644141684196    -0.310420631136
N      1.264048091883     2.188345539800     0.738663643752
C      2.510001694256     2.077148123678     1.034454645438
O      3.185511558187     0.911693237409     0.887498600988
C      3.297756522750     3.186343906059     1.592705580426
H      4.339436351933     2.846058844305     1.738674784821
H      3.277386554470     4.021128098178     0.872596708585
H      2.863772852433     3.472844675939     2.566787479532
N      1.670527478876    -2.418187207999     2.365086559652
C      1.141625555086    -3.672873725207     2.512510859790
C      0.452857170653    -4.002034056132     3.666206216962
C      0.311051553489    -3.080809047129     4.684083499252
C      0.867051702689    -1.839140967549     4.515824865827
C      1.557146064758    -1.560676239771     3.317654851659
H      1.246401925276    -4.398216507138     1.714091045548
H      0.030823661236    -4.988344412434     3.769080822593
H     -0.225757328814    -3.333102353989     5.594797679932
H      0.801675472151    -1.072988304278     5.263044955743
O      2.062335375340    -0.314769515276     3.265145616936
H      2.544189057020    -0.119382783397     2.428334800684

