# STO-3G

title

0 1
C      1.891330895880     1.445993824608     2.702455185557
C      1.851884463255     1.966754827585     4.021316589615
C      2.749117187896     2.976322092421     4.433378389798
C      3.710888668322     3.478121046627     3.537753497030
C      3.761932224849     2.975006365268     2.222210118066
C      2.858986011556     1.976517305199     1.806832082605
H      0.263128174601     2.436561751388     2.335445435514
H      1.118720320916     1.603105606241     4.739154417321
H      2.691670649550     3.365178784793     5.447852771099
H      4.405191814713     4.252148419611     3.855483917775
H      4.497950327281     3.359148833325     1.519029210204
H      2.907311926964     1.616722797468     0.780778445507
C      2.055782188416    -1.373672492958     3.392502076273
H      2.338457418601    -2.193275563008     2.735116690090
H      2.827004271036    -0.673736998185     3.697816875536
C      0.787812619351    -1.308998221548     3.969791095147
H      0.554772437392    -0.521002107665     4.672668865002
C     -0.208223206112    -2.397651455172     3.910883683893
O      0.155778625308    -3.562912791407     3.596794293126
O     -1.483384381753    -2.153948354078     4.449279961681
C     -2.425038219029    -3.228225857766     4.319033929131
H     -3.399778623409    -2.920050789605     4.753996992712
H     -2.586482172698    -3.481688954765     3.245731159943
H     -2.071592652988    -4.133777962696     4.862680034050
Pd     0.744417423737    -0.105854175688     2.028101012194
C     -0.790855301611    -1.473817104387    -0.037371542852
O     -0.348809684259    -1.671420454822     1.198823987209
O     -1.312454600556    -2.341801407823    -0.775568608568
C     -0.656308920664     0.004569345864    -0.573599682653
H     -1.615508755081     0.225137433756    -1.061517080351
C      0.448226476592     0.149665578345    -1.596624468822
H      0.396292259753     1.152249082219    -2.066954470603
H      1.432129046532     0.050514850437    -1.100255074439
H      0.349916966099    -0.626752685195    -2.384293120596
N     -0.332738613372     0.915603685549     0.544557286793
C     -0.810415020463     2.098581779329     0.746099887034
O     -0.470490053648     2.854738578974     1.796606036830
C     -1.795909265534     2.716661497877    -0.158075787966
H     -1.360901147268     2.769017959347    -1.169442601787
H     -2.716037316429     2.109923008527    -0.135713912169
H     -2.023064435752     3.738819437796     0.199117412656
N      2.475451732965    -2.806399587482     0.666993131895
C      1.768677185963    -3.891025234882     0.220886308303
C      1.724915768650    -4.165703942010    -1.135990560063
C      2.372623976965    -3.346903008153    -2.039106466185
C      3.052210426919    -2.255288769264    -1.556567170505
C      3.056773196559    -2.032176188840    -0.165061678624
H      1.254444905573    -4.530542059890     0.929350937906
H      1.157014863605    -5.013572070219    -1.481699837417
H      2.332859882492    -3.554111260367    -3.104946553435
H      3.565872694125    -1.567351740524    -2.196473689921
O      3.681728460564    -0.881712536892     0.215985849591
H      3.563420901155    -0.737350757955     1.179212600687

