# STO-3G

title

0 1
C     -1.015774743331     2.731423633806     0.323901087534
C     -1.090139455986     3.711949350685     1.346672042503
C     -1.512903317216     5.029054961331     1.056729652663
C     -1.863848379588     5.386954904043    -0.256665460812
C     -1.796377118754     4.420340071588    -1.281210821240
C     -1.380131077760     3.105599480561    -0.994323607687
H     -2.631829764135     2.213685801633     1.373252304001
H     -0.813696693700     3.464594487937     2.371504931418
H     -1.566563404356     5.762430731827     1.858197326770
H     -2.188245959876     6.400044287505    -0.480755961581
H     -2.069175485127     4.688004907716    -2.299867431059
H     -1.340543436959     2.374444229932    -1.799124553390
C      1.571625452344     1.303376042415    -0.299698501692
H      1.449498560493     2.143143261713    -0.977529006051
H      1.712984858761     0.314569695692    -0.744029986379
C      1.791842288710     1.506558179377     1.065116381868
H      2.053009002496     0.661242392465     1.687597617188
C      2.004886990014     2.826355241392     1.683665727331
O      2.075925161546     2.902873822039     2.937739832668
O      2.083135116003     3.972381729898     0.872903834685
C      2.230531688999     5.221401037236     1.561986901925
H      2.268999596872     6.047222274949     0.819552499426
H      1.364666753750     5.405229018035     2.237330901916
H      3.173376422641     5.238181932809     2.154162646978
Pd    -0.387026012303     0.845978389028     0.688818419661
C     -0.710737996250    -2.086031076475     0.879458592734
O      0.224300849971    -1.138127344185     1.034567127888
O     -0.550877072955    -3.305150913137     1.069752504969
C     -2.083930339456    -1.536471940394     0.375387097816
H     -2.846693199936    -2.221274228571     0.767662832854
C     -2.151529502413    -1.548134412053    -1.136586193527
H     -3.142292704640    -1.177310442950    -1.471132639359
H     -1.363237602641    -0.888447890640    -1.553808872080
H     -2.004025189014    -2.580497698250    -1.518315192468
N     -2.259215765752    -0.130100155665     0.797282736533
C     -3.332459840475     0.388756606668     1.295561565580
O     -3.434039072472     1.678075518605     1.631520640759
C     -4.553404460617    -0.399184835967     1.543815934921
H     -4.890159719140    -0.836227056628     0.589290215649
H     -4.321688033697    -1.171859823556     2.295549331856
H     -5.341228425102     0.269282246667     1.939867862880
N      2.610930642529    -1.495988728526    -1.335644351768
C      3.218367102253    -1.729823543250    -2.540257913483
C      4.497101952687    -2.255021960958    -2.583540270031
C      5.170588138132    -2.553667243405    -1.417209831281
C      4.537477269884    -2.321575483390    -0.224587764458
C      3.227231260252    -1.794182642188    -0.237226772921
H      2.697841065958    -1.490089768211    -3.459948843407
H      4.967289358336    -2.429884250509    -3.536905107378
H      6.175929587458    -2.965319885907    -1.443349729389
H      4.993632815400    -2.535896849160     0.720890488850
O      2.702737169016    -1.612311079377     0.979435489056
H      1.683281040013    -1.476640347319     1.005908534520

