# STO-3G

title

0 1
C     -1.666149039589    -1.306270168494    -1.016793605050
C     -2.449691676602    -1.312328888387    -2.200953689435
C     -3.556604801205    -2.182124072237    -2.327843781095
C     -3.887135232816    -3.070682067899    -1.289616617088
C     -3.109688213788    -3.081495248381    -0.113426103077
C     -2.015645989740    -2.204745056457     0.023887892216
H     -2.628298384855     0.428072857402    -1.006796612954
H     -2.202003035822    -0.647445630945    -3.027821173282
H     -4.150179891592    -2.160895124529    -3.239291584182
H     -4.735103608927    -3.743549052335    -1.391418717800
H     -3.353758544283    -3.767103018787     0.695522833704
H     -1.430500514324    -2.229180071140     0.941010501997
C      0.653861391096    -1.426512234893    -2.385369494168
H      0.480523024343    -2.443807706705    -2.053253168227
H      0.008729998171    -1.047695830962    -3.166817459637
C      1.758099338236    -0.689375127272    -1.984065823147
H      1.964491390144     0.270007645331    -2.438224077867
C      2.780663401449    -1.163794192455    -1.037369160193
O      2.485554561131    -2.083294800885    -0.225479632626
O      4.041053862716    -0.544098185906    -1.022285366772
C      4.903895856862    -0.906831686917     0.063882844052
H      5.861067659501    -0.349712614483    -0.026577337442
H      4.440109269364    -0.636048776817     1.039896715274
H      5.129988801082    -1.996894362069     0.046030652162
Pd    -0.044262199667    -0.091162516895    -0.650199674074
C      1.321850134237     1.731369830310     1.184785142938
O      1.529459558473     1.146653343364     0.008846990132
O      2.142575180997     2.425888356183     1.821701043965
C     -0.112594221315     1.475979074234     1.799639197230
H     -0.387686023104     2.381785288193     2.354910079219
C     -0.106701852971     0.301803193480     2.751553429332
H     -1.129385782046     0.138431141790     3.150051612109
H      0.222512877546    -0.613660865401     2.218458880884
H      0.585910976406     0.500394187198     3.596123745887
N     -1.037686865577     1.131028674177     0.707306152716
C     -2.136223623826     1.717824659054     0.386716954919
O     -2.868027139035     1.349374533868    -0.689646426891
C     -2.667540718353     2.869522361295     1.131787881889
H     -2.836931506179     2.560888105860     2.176873655189
H     -1.938039419060     3.693882479492     1.057566974435
H     -3.625432709311     3.183961351109     0.677000471665
N     -0.609465041128     1.144975998516    -4.203283792859
C      0.094062731795     0.785206194916    -5.322532124711
C      1.256305682141     1.457548141602    -5.655496420322
C      1.705191670482     2.506683294518    -4.879057726832
C      0.964987488488     2.862620292637    -3.781865560894
C     -0.211395150819     2.141138625161    -3.493610256877
H     -0.248563893256    -0.044209704940    -5.930125881763
H      1.812350034632     1.157030929510    -6.528361843376
H      2.618950460324     3.038031353015    -5.131892583444
H      1.249679826495     3.666563575230    -3.131784525328
O     -0.858203396566     2.583794659938    -2.398563245543
H     -1.673052531258     2.073665883904    -2.192338088515

