# STO-3G

title

0 1
C     -1.037102838733     2.688180965630     0.274095283481
C     -1.113955798609     3.593844975744     1.356675399025
C     -1.584468667507     4.908120822870     1.157667488021
C     -1.991040113199     5.334312441145    -0.122747636547
C     -1.920342388509     4.436004844394    -1.203785371186
C     -1.443375735647     3.121218775569    -1.007906807718
H     -3.388570643024     1.856263595177     2.922806017112
H     -0.809610778980     3.279594151324     2.352613740925
H     -1.629891512975     5.595169220265     2.001041410374
H     -2.352654069505     6.348709057653    -0.274748472973
H     -2.228499388720     4.753009300170    -2.198317490709
H     -1.391310223715     2.447559560761    -1.861447909152
C      1.482060751046     1.165623560653    -0.621312086945
H      1.322183524342     1.978989181203    -1.323153512162
H      1.629365973910     0.161492131381    -1.023334840675
C      1.780658543443     1.418346297660     0.721789109812
H      2.082062658062     0.590979569591     1.353551138511
C      2.031251556455     2.759308314341     1.278822788152
O      2.255740301703     2.872712231684     2.511869137858
O      2.027739769745     3.878460035357     0.427277647279
C      2.207253805873     5.151157558698     1.063082148617
H      2.169991876509     5.953188593620     0.295182546499
H      1.395115686181     5.342024953016     1.800489255287
H      3.194129590597     5.201934531591     1.576263284650
Pd    -0.410440760267     0.794645811854     0.501686510977
C     -0.975677285430    -2.114403123263     0.260598124272
O      0.034905943630    -1.305400721496     0.583498016527
O     -0.935974438276    -3.352651994316     0.139784905356
C     -2.334501121927    -1.345871198430     0.015949506517
H     -3.141737439127    -2.036293646354     0.293529835963
C     -2.501634397963    -0.954774233316    -1.434392289448
H     -3.461802641539    -0.413863273516    -1.564953594844
H     -1.671582697830    -0.289704952522    -1.745871082578
H     -2.504818228617    -1.861492211594    -2.075096939346
N     -2.293883362188    -0.098607335139     0.791894156673
C     -3.075150295179     0.269394995514     1.732849024792
O     -2.689411600496     1.309292620037     2.519195515172
C     -4.337343223797    -0.435825943569     2.043526026720
H     -4.965120684846    -0.435781181442     1.136337541090
H     -4.090918411778    -1.460014899813     2.370039507043
H     -4.860941776398     0.088059237207     2.862946600252
N      2.888034738287    -1.578222253303    -1.303544198512
C      3.759278534487    -1.736386745188    -2.347716937404
C      5.045275961328    -2.190876177227    -2.117048364046
C      5.460564875872    -2.494364405445    -0.837013666507
C      4.566626077854    -2.338478044023     0.189507045221
C      3.262563575716    -1.880346893933    -0.103324070760
H      3.441095607258    -1.492741640258    -3.354494107069
H      5.723833589723    -2.306722720803    -2.945567032536
H      6.469474582540    -2.850774257420    -0.647750150990
H      4.814367001955    -2.560677543049     1.207816199397
O      2.472712783782    -1.769378296681     0.971285338740
H      1.467095218212    -1.662148234144     0.775633496787

