# STO-3G

title

0 1
C      0.243709130603    -2.260039338002     0.509340388672
C     -1.146509886707    -2.423505922148     0.791127734120
C     -1.842733753326    -3.554800826701     0.283806636754
C     -1.160666152337    -4.517134350317    -0.468124616780
C      0.227361876785    -4.370826874173    -0.724502651046
C      0.920899248475    -3.247933409376    -0.252333463166
H      0.801808190194    -1.430318017841     0.935410170736
H     -1.641293242065    -1.761389940372     1.498389861733
H     -2.904243178218    -3.664289527113     0.488359205399
H     -1.693635745144    -5.384128502255    -0.851155445735
H      0.752830488307    -5.140150010100    -1.286077278690
H      1.985710998971    -3.136322796400    -0.440530606552
C     -1.483613626804     1.481561518840    -1.666094201111
H     -2.259771854266     1.303208324817    -2.402050898508
H     -1.772615762401     2.018722550206    -0.768350711644
C     -0.131203691659     1.219428085208    -1.925427459581
H      0.625581920851     1.514780568786    -1.215495160939
C      0.397105819479     0.807911810286    -3.237479778293
O     -0.335766416850     0.850029926823    -4.260535511808
O      1.743648411688     0.412957890059    -3.320473450503
C      2.210140452388     0.054340175675    -4.629154122147
H      3.279624275880    -0.242259965238    -4.571765363575
H      1.629773780265    -0.804870221195    -5.036189658501
H      2.126579828505     0.917388634422    -5.328465767742
Pd    -1.057921633377    -0.504276929006    -0.700716119863
C      0.202217629943     1.142082537880     1.451084534028
O     -0.914692466964     0.596544739983     1.031055877110
O      1.365029225075     0.725403216512     1.104056423957
C      0.098368425007     2.485491213717     2.227880148589
H      1.005239088933     2.567062296274     2.847312638150
C     -1.124181261254     2.592876403981     3.103977325157
H     -1.098597278267     3.553745136507     3.658462401008
H     -2.034883620494     2.577819761862     2.468764477315
H     -1.159601146971     1.751235830886     3.825565170533
N      0.020704996175     3.593658466671     1.251099284939
C      0.927362913102     3.780694994821     0.356538199252
O      2.034278191030     3.030513978427     0.056515426588
C      0.776669405751     4.948562989923    -0.513717757892
H      0.681176151505     4.590729675484    -1.552992016685
H     -0.131725187232     5.507889851603    -0.220880575769
H      1.670242518160     5.585909568851    -0.399202398589
N     -1.481517480291    -1.512683567559    -2.368852372574
C     -0.641254962397    -2.266573124399    -3.135726968038
C     -1.142027202262    -2.976482904885    -4.205743514737
C     -2.485311966363    -2.932649244048    -4.514043540243
C     -3.321946359703    -2.183536487198    -3.728974855984
C     -2.803207089256    -1.461174978943    -2.625389902757
H      0.418511626446    -2.291971651878    -2.913741182763
H     -0.472459542568    -3.562407288668    -4.811401966097
H     -2.875817575606    -3.487373465795    -5.362602870804
H     -4.374173208835    -2.116975841440    -3.912880631769
O     -3.607921606665    -0.797892434228    -1.900650524019
H      2.075654129515     2.152074238096     0.542666050342

