# STO-3G

title

0 1
C      0.399073698751     3.814787973110    -0.297459329157
C      0.875747254630     4.108657190249    -1.603310605737
C      0.268361937578     5.117704517848    -2.366118622163
C     -0.818421469582     5.846708415567    -1.844135609622
C     -1.300213783971     5.562760925572    -0.548798570682
C     -0.698276886971     4.556151909102     0.220954110501
H     -3.048600636742    -0.172988095916     0.436986255679
H      1.691797783966     3.514556147248    -2.008568865831
H      0.633941334987     5.325920054818    -3.367862802284
H     -1.287329066863     6.627292371755    -2.438494299265
H     -2.134064790518     6.130546463077    -0.143718115331
H     -1.063528781684     4.372835508597     1.228210286128
C      1.081033334416     2.746215416956     0.464187124061
H      0.620084621968    -0.123752944384     0.395420813984
H      2.033075122251     2.422110712437     0.049197740740
C      0.616588926967     2.223461706129     1.688555452620
H     -0.261553771293     2.645605928896     2.154326584901
C      1.410499468379     1.366354686562     2.580185492534
O      2.302260861960     0.635556151027     2.074351473842
O      0.907120432656     1.120952941359     3.867178302335
C      1.524833859250     0.045474414225     4.588743001799
H      1.051080779773    -0.047912459495     5.589630356771
H      1.382619863866    -0.921856418442     4.053226679570
H      2.612687602122     0.234660801024     4.733420253929
Pd    -0.222851533816     1.054792063025    -0.049664588662
C     -1.447025245727    -1.410189889907    -1.454744079577
O     -1.110944031817    -0.103822086817    -1.519473939079
O     -1.368606453757    -2.181087813803    -2.432530122785
C     -1.930414334789    -1.911484346835    -0.057195490616
H     -1.075031664385    -2.393905307874     0.433439377752
C     -3.054520042629    -2.918804599401    -0.162464934423
H     -3.333545909754    -3.273534263777     0.851556043082
H     -3.938796063517    -2.438872121334    -0.629493854064
H     -2.739386486314    -3.789845067344    -0.774153707222
N     -2.377097000537    -0.828541420498     0.818661904896
C     -1.846638879959    -0.633270536016     2.058627797294
O     -0.919667781049    -1.307399155632     2.561871231350
C     -2.464222919303     0.458196728298     2.840536060900
H     -3.518677420250     0.183436493132     3.017609973082
H     -1.928609661831     0.550794090833     3.803513896107
H     -2.406813353405     1.396964212389     2.266129021969
N      2.976240659859     1.397295662398    -1.913094517504
C      4.155162277724     0.894402657260    -1.431982817989
C      4.304269044888    -0.468737706038    -1.251551910848
C      3.284368873429    -1.335634581948    -1.577531825840
C      2.115849035668    -0.810513170579    -2.068578048557
C      2.017843172996     0.597577392021    -2.226996396527
H      4.962467431555     1.569980261105    -1.174336069023
H      5.233876337709    -0.850660020206    -0.862360669898
H      3.409426441754    -2.409301361212    -1.462287861206
H      1.323229041099    -1.448514653333    -2.410015929875
O      0.861800368786     1.081699847477    -2.742546811247
H      0.054277989872     0.507851711086    -2.565157032954

