# STO-3G

title

0 1
C     -0.004172099279     2.607034526649     0.673464921935
C     -0.408133323385     2.359485310022    -0.662747016620
C     -1.540612131477     2.999021932070    -1.193553709815
C     -2.289914797779     3.893205280915    -0.399574427625
C     -1.903657459947     4.132446816528     0.933687683747
C     -0.769752689442     3.496206350738     1.466442067953
H     -2.604055777629     0.869088666687    -0.454166916970
H      0.151299627295     1.632003443649    -1.245820842408
H     -1.836384012810     2.808871325886    -2.222667787287
H     -3.160328626112     4.396479190105    -0.813772115607
H     -2.477818091106     4.818789694268     1.550898909426
H     -0.471910704533     3.714135479130     2.488584326229
C      1.248287178025     1.995111767439     1.182132255521
H      2.361532377451    -0.420916537330     1.424103437655
H      2.023827118718     1.836366652649     0.434944409154
C      1.557199889607     1.845160435386     2.562080758453
H      0.797485907672     2.097013826669     3.289125239265
C      2.923335596438     1.779059259244     3.102880359938
O      3.828992569490     1.283122133884     2.382372387600
O      3.090543170801     1.898125716495     4.490899780585
C      4.431351782008     1.742486298456     4.978496628047
H      4.439942552830     1.878545038367     6.082036508081
H      4.822031956401     0.723890643768     4.754009530331
H      5.107850920261     2.505997071073     4.531076207878
Pd     0.911785865173    -0.108126044239     1.768469953202
C     -1.286310711055    -1.029137850946     0.800497636951
O     -0.142778215731    -1.689890494479     0.694754141526
O     -1.386771368655    -0.129000941834     1.716868231783
C     -2.412301740135    -1.224064997336    -0.223746104230
H     -3.104860403115    -1.998348065157     0.132980804062
C     -1.909011350634    -1.599952914568    -1.601039418421
H     -2.774223335481    -1.712971141703    -2.286768643409
H     -1.255335278949    -0.791412457774    -1.989964142302
H     -1.350526478457    -2.557659586388    -1.564943731188
N     -3.154590669491     0.024469667720    -0.330598578369
C     -4.445864979191     0.097146353560     0.092623820014
O     -5.131903448895    -0.882711748735     0.460421922635
C     -5.034231484954     1.451830263503     0.087290461772
H     -4.978303143239     1.837765360556    -0.943655299788
H     -6.080942759714     1.381785872949     0.428480979874
H     -4.438906404538     2.080646297763     0.772572846706
N      1.829062483527     0.186437329382    -1.831697128743
C      2.482338195298     1.123511971696    -2.591741203077
C      3.703492799490     0.825968283842    -3.166254300689
C      4.272745386618    -0.416888447855    -2.996426882654
C      3.598416362616    -1.339745209033    -2.241479328783
C      2.355441668912    -0.985006960599    -1.671951232257
H      2.043892422397     2.104700730852    -2.733453807643
H      4.206898406405     1.573825652262    -3.757004333431
H      5.229104913257    -0.659459557425    -3.452215227410
H      3.976499473215    -2.329744634104    -2.080685831143
O      1.808092654895    -1.983797411546    -0.976687119784
H      0.965400813291    -1.808771438475    -0.458195607140

