# STO-3G

title

0 1
C      0.477868811463     2.915216606831     0.671189543344
C      0.756558804136     3.788326908865    -0.409391200958
C     -0.270220867694     4.532204850899    -1.015747273667
C     -1.596932184284     4.394947725654    -0.562525367900
C     -1.886899282296     3.509422749033     0.496044517059
C     -0.861078200701     2.776552028602     1.113375100293
H     -1.336042280015    -0.403615766368    -0.982526772914
H      1.782742482545     3.896550602145    -0.759131865773
H     -0.037603096929     5.215135102282    -1.829177762695
H     -2.396014017202     4.966850184201    -1.028004738050
H     -2.912283299053     3.382200347877     0.834124458236
H     -1.112052127404     2.072448226330     1.902642047885
C      1.626058594665     2.247968560175     1.326864861481
H      2.602588462826    -0.092725202130     1.081665357094
H      2.544959835167     2.250151015716     0.741655142202
C      1.699578045944     1.935925166118     2.707539232826
H      0.840989002333     2.133043407263     3.333688544739
C      2.959701554470     1.711870609292     3.430135961201
O      3.911258571340     1.177683665591     2.801013407230
O      2.930479211065     1.709106114759     4.832587447549
C      4.164993669889     1.382356939155     5.487230993191
H      4.021868322200     1.433953174482     6.588707744329
H      4.491092149749     0.348713474560     5.230787776299
H      4.965846638601     2.104582997610     5.208697687416
Pd     1.212393936588     0.071942283890     1.688904327974
C     -0.969308604660    -1.247564326374     1.390054485590
O      0.224825398024    -1.728391111215     1.044185408679
O     -1.003239521139    -0.308124677758     2.270234439396
C     -2.204103294971    -1.619361637169     0.574979939153
H     -3.103772929465    -1.487942351897     1.183977853380
C     -2.172912074738    -3.016328892598    -0.005860298292
H     -3.133360984102    -3.215303798895    -0.524982045249
H     -1.352937521335    -3.092154440821    -0.749157750555
H     -2.028591310537    -3.766533133698     0.797924938073
N     -2.240060442003    -0.645730991432    -0.527774340457
C     -3.415959680350    -0.040337629895    -0.827260324193
O     -4.507330714547    -0.242776598327    -0.241019827301
C     -3.360881892537     0.925877615464    -1.941708511124
H     -2.935104285969     0.407699900194    -2.817181049511
H     -4.384888837274     1.278964220343    -2.150905964028
H     -2.721659754919     1.764236014775    -1.624652207108
N      0.388266453127     0.063264265612    -1.687367217771
C      0.354284824573     1.233919608078    -2.396516780976
C      1.409094362758     1.576222721233    -3.224127888409
C      2.495257765582     0.739202808159    -3.356805391849
C      2.510241971636    -0.423783260076    -2.632236758610
C      1.413111592547    -0.722585483713    -1.794915347322
H     -0.497098500040     1.894094293602    -2.306974469597
H      1.366054149099     2.500600587372    -3.775447554556
H      3.319534554304     0.996499613772    -4.016552442920
H      3.317826885782    -1.125280910031    -2.692802818547
O      1.547003418286    -1.868081144993    -1.127119638948
H      0.919106842037    -1.958984827860    -0.338952131944

