# STO-3G

title

0 1
C     -2.443584240463    -1.893587840758     0.768629084839
C     -2.690094959072    -2.651008445652     1.943805159093
C     -2.106542600421    -3.915981256972     2.096641117056
C     -1.229784792826    -4.429202604968     1.102190774318
C     -0.949814966785    -3.675854292525    -0.043831839085
C     -1.573366877274    -2.410127996187    -0.230365947317
H     -2.992229124630    -0.980582889687     0.561199052509
H     -3.368495105625    -2.261484395181     2.698224872100
H     -2.331439750491    -4.515245726671     2.975919117990
H     -0.789912021040    -5.415670995264     1.227262213228
H     -0.294580153991    -4.066030090399    -0.818114105086
H     -1.527056399021    -1.928554942996    -1.203059832320
C     -0.976354671253    -0.383893350603    -3.464668143361
H     -1.383670301624    -0.129795109493    -2.490065606584
H     -1.622487822103    -0.162996892631    -4.308259309578
C      0.253441615535    -0.924888971476    -3.636573436456
H      0.623054630852    -1.157584065725    -4.624205668944
C      1.188427524509    -1.224944402211    -2.543506940042
O      0.865089544746    -0.944953057238    -1.358122733723
O      2.421852767366    -1.825918783943    -2.844666176156
C      3.327691876538    -1.979200943331    -1.742591777044
H      4.256057275593    -2.477954519611    -2.094566200535
H      3.608143852069    -0.985698289953    -1.324046642724
H      2.878456111249    -2.606850885046    -0.938972400287
Pd    -0.509464896357    -0.212137930732     0.492513262117
C     -1.872296682887     1.858670981521    -1.016572076745
O     -2.041979593843     0.594476263717    -0.549761690997
O     -2.698447463300     2.413083059986    -1.759182273407
C     -0.549869752140     2.549235340040    -0.573639199120
H     -0.818534027647     3.569459154449    -0.279604165792
C      0.471252639302     2.611110853606    -1.687872885753
H      1.356949615163     3.190360398254    -1.352942301621
H      0.797741015408     1.590252845154    -1.962445494038
H      0.034046423964     3.108187114689    -2.579134255914
N      0.064908627355     1.850010487999     0.589517246273
C     -0.383452983172     2.320696439506     1.842669247810
O     -1.361534051161     3.068891501384     1.985622284171
C      0.398948874824     1.906867084334     3.022184195993
H      1.454520566248     2.191063805376     2.866092306182
H     -0.002140028675     2.434487566848     3.906622713974
H      0.289933977584     0.820296360465     3.163350352450
N      1.152200091910    -0.907169962524     1.498757132812
C      1.122934541346    -2.068404947812     2.216130463693
C      2.296195758917    -2.632302107769     2.668544133984
C      3.508408122454    -2.034296759556     2.413248999759
C      3.523518493888    -0.860137563350     1.709976204404
C      2.310699930605    -0.289151200569     1.250614214286
H      0.178378478236    -2.527655590103     2.456868052839
H      2.256540673315    -3.548106433606     3.235071395413
H      4.432806068534    -2.477142411851     2.774436927027
H      4.434046426866    -0.336109527888     1.499910879374
O      2.428173906976     0.832063471335     0.631875056956
H      1.120890776450     1.548449280785     0.535963309627

