# STO-3G

title

0 1
C      1.600639568495     3.298062338311    -0.257745515130
C      2.330997147221     3.120983132781    -1.468523551029
C      1.869377612864     3.691001990358    -2.656692121647
C      0.665664275101     4.448384619301    -2.673031563769
C     -0.064061267827     4.634664788373    -1.495838463012
C      0.401333580757     4.072615556059    -0.269967935663
H      0.390018946578    -0.381410117848     1.186379673921
H      3.250518336509     2.542041058927    -1.457252376643
H      2.435658245966     3.558576163970    -3.575791265067
H      0.328611754699     4.899375799090    -3.603449309372
H     -0.963179962374     5.245610457726    -1.494582607536
H     -0.049416959466     4.386447658932     0.666052445477
C     -0.163174025765     2.247532120944     2.026189395198
H     -1.104641427033     2.683981872381     2.368701985639
H      2.040119614996     2.987917242052     0.683728074166
C      0.863402491459     1.919430368972     2.839396693476
H      1.742340467300     1.413955423596     2.451071677432
C      0.873041726858     2.147440575680     4.295091537093
O      1.896073278484     1.823272549328     4.953719530307
O     -0.213687246767     2.800497031673     4.908328975382
C     -0.110465170853     2.988644314215     6.326872651495
H     -1.021872760091     3.504578328885     6.698067802678
H     -0.027630043178     2.009107960272     6.850570336085
H      0.773134106105     3.617853635318     6.579541517192
Pd    -0.186784783967     1.755151478860     0.090566508223
C      1.275942418922    -2.202830241272     1.164598240972
O      2.272359739931    -2.897264115525     0.970387138775
O      1.331706546595    -0.815474590616     0.982595615459
C     -0.146012435747    -2.672771843356     1.610253709628
H     -0.330589616480    -2.169677042918     2.577737634416
C     -0.210006289484    -4.165623463491     1.814398814086
H     -1.214127500085    -4.446749578861     2.193289198406
H     -0.040485207062    -4.671089217180     0.841318490259
H      0.562015833555    -4.491645835935     2.541715689496
N     -1.217861912805    -2.339307509448     0.648500204519
C     -1.551674584577    -1.120555803321     0.396003274343
O     -0.980741358745    -0.009812307941     0.939785407976
C     -2.708601698842    -0.907985096778    -0.482414233367
H     -3.110991835560    -1.891788954071    -0.789223930189
H     -3.466410684424    -0.350555671774     0.090599915454
H     -2.375813141418    -0.348049962828    -1.368018539133
N     -0.098338190785     1.033318815075    -1.950438715581
C     -0.961156715409     1.548304652679    -2.881232500414
C     -0.847056387628     1.189866027399    -4.207871746410
C      0.140792801297     0.319383800078    -4.612169593976
C      0.994868376353    -0.175843045867    -3.663964808866
C      0.836588325261     0.205674580654    -2.314437954486
H     -1.737783657066     2.237546348405    -2.571437885096
H     -1.532768425276     1.598386028475    -4.931872180838
H      0.240611134777     0.033439179406    -5.655965751881
H      1.785017067211    -0.858568218602    -3.909465088975
O      1.738358538772    -0.334576036279    -1.514484798306
H      1.620507045126    -0.372922212763    -0.499705547987

