# STO-3G

title

0 1
C      1.856192761718     1.137854215014     1.380130024146
C      1.044824022717     2.306817035243     1.377611940845
C      0.083216085883     2.492178673810     2.376403833731
C     -0.079677092920     1.525222694891     3.404159480970
C      0.728002983091     0.383216860741     3.434800391042
C      1.706458016693     0.174520176575     2.420623219476
H      2.653409153878     1.042534131115     0.653061445902
H      1.195670468294     3.046861107419     0.597660106708
H     -0.542519025783     3.381018906240     2.369588805244
H     -0.832738830198     1.678686670489     4.172635781051
H      0.620186764477    -0.347453655029     4.231600828649
H      2.403568927657    -0.655706642695     2.492800405762
C      0.077574312627     1.145155719073    -2.634751728704
H      0.440274528475     1.300966317802    -3.648796710374
H      0.379371480622     0.217132648511    -2.160883665564
C     -0.710605112024     2.030700111436    -1.974186399454
H     -1.048513908496     1.788829271987    -0.976577955843
C     -1.167659426561     3.321886287272    -2.515661849489
O     -0.818782415803     3.676848962943    -3.674010831051
O     -1.950740785523     4.157133482120    -1.700075288590
C     -2.336165150969     5.413387931990    -2.275667001360
H     -2.948637083272     5.981670809057    -1.542930615252
H     -1.439906595769     6.024701372955    -2.527867036824
H     -2.947559695824     5.257395616674    -3.193356484746
Pd     0.591119978720    -0.688502968245     0.476844378189
C      1.726459439314    -3.072493878388    -0.614583404550
O      2.054075706645    -2.035488444521     0.206349785406
O      2.523752950963    -3.995861192149    -0.851331394926
C      0.300597647797    -3.014406144867    -1.285939459272
H     -0.217520215791    -3.953816417306    -1.042222960493
C      0.424840476853    -2.883578359887    -2.790079895976
H     -0.577446028357    -2.801795499161    -3.255190501788
H      1.013123133128    -1.975661372594    -3.038117634609
H      0.943864909733    -3.772309925331    -3.206394066473
N     -0.387565253126    -1.847391311120    -0.773802805941
C     -1.588337233797    -1.322938893809    -0.664329061774
O     -1.674276624616    -0.220556866548     0.032885105579
C     -2.781935390381    -1.911588407523    -1.287741107244
H     -3.174335798908    -1.176821344995    -2.011445514909
H     -2.514268878461    -2.853525359663    -1.791660405018
H     -3.523118746277    -2.097083408460    -0.490921563260
N      3.225034956316    -0.094385681376    -2.072309388939
C      4.140798005499    -1.114257324609    -2.081701514593
C      5.450938717828    -0.870200646567    -1.707480696769
C      5.843038454028     0.391481494974    -1.310936535338
C      4.903070115459     1.389938176465    -1.304105600907
C      3.585772493272     1.079483828292    -1.701186112896
H      3.841502834904    -2.106441178663    -2.397013028919
H      6.160130259461    -1.681456827153    -1.714447601050
H      6.868123805427     0.587128687786    -1.008104214245
H      5.130432392795     2.392283676050    -1.001969093264
O      2.730555054408     2.129708535021    -1.618715676758
H      1.818408885636     1.877543275191    -1.904513552506

