# STO-3G

title

0 1
C      1.249126425478     1.899709765010     1.398704384441
C      0.134191827500     2.780578735269     1.477254418990
C     -0.739596002729     2.719163807335     2.568107760947
C     -0.522637877855     1.778824866648     3.609405359932
C      0.577325898130     0.916245041108     3.558592637977
C      1.475864093458     0.969276636022     2.454435403815
H      1.965419149936     1.982824351383     0.586462626890
H     -0.027115982711     3.511571602709     0.690151927943
H     -1.590703507388     3.393569232018     2.619213416860
H     -1.210608000708     1.736253114813     4.449823063432
H      0.761580156347     0.207740862556     4.361575415983
H      2.382750820094     0.371271590433     2.464032345902
C     -0.014164030187     1.234158593302    -2.758020301614
H      0.494053126479     1.472271416941    -3.688637874348
H      0.088004996834     0.207757130374    -2.416530098036
C     -0.730579714818     2.123299313145    -2.026254859113
H     -1.202844693394     1.787209286816    -1.114287370531
C     -0.924394340710     3.541073041422    -2.373745908684
O     -0.358752765153     4.020875760646    -3.392857688949
O     -1.640727498981     4.359600959300    -1.483063888577
C     -1.743086973425     5.743477977608    -1.847068161896
H     -2.331543580950     6.285048318415    -1.075330761785
H     -0.734659181896     6.212638015325    -1.907704301024
H     -2.263438160239     5.858151161770    -2.825112822360
Pd     0.572929447953    -0.304235859525     0.608695341376
C      2.188590714236    -2.601781905458     0.062991869619
O      2.239872583875    -1.419119015711     0.738475276152
O      3.109807166102    -3.434867726796     0.110179163150
C      0.874613915248    -2.870200766974    -0.772652028578
H      0.474433722606    -3.836105881633    -0.430825110172
C      1.173686670358    -2.949879690093    -2.254539540724
H      0.253303962592    -3.192788369001    -2.821044902982
H      1.561945204041    -1.973328958598    -2.604961903353
H      1.935418140928    -3.733855601925    -2.449146767838
N     -0.044026907480    -1.771211694884    -0.545210222885
C     -1.313244825380    -1.446683549822    -0.659190146185
O     -1.658821741937    -0.286486035209    -0.168291028834
C     -2.309351101161    -2.316236962288    -1.301130424829
H     -2.709807024494    -1.775202539282    -2.175377053145
H     -1.837574364422    -3.263037551162    -1.607276063092
H     -3.113384392780    -2.506353295239    -0.568795486609
N      3.125766334720     0.160139651661    -3.250500328896
C      3.895873800373    -0.791774832668    -3.864324391437
C      4.882236742185    -1.448424469939    -3.150286684462
C      5.114238273428    -1.133556162051    -1.825433674598
C      4.358014721793    -0.143195115217    -1.253907198727
C      3.356591974742     0.473229027689    -2.028124285996
H      3.710187745671    -1.048945076062    -4.900492424234
H      5.466511578485    -2.216043051102    -3.629912114131
H      5.872625312912    -1.658040570829    -1.250045288053
H      4.463895026492     0.133032162060    -0.223709967265
O      2.625311399162     1.397511826791    -1.357077951972
H      1.839409878434     1.674816135495    -1.885706037023

