# STO-3G

title

0 1
C      1.831214895662     1.063823149336     2.197241934527
C      1.206237232910     2.331474943252     2.371268787137
C      0.225646635950     2.503136194950     3.354205494101
C     -0.148120699781     1.420596172316     4.193584708872
C      0.465957763127     0.171879935664     4.049089727936
C      1.459040696327    -0.020999157894     3.046399467688
H      2.656060849239     0.938739259810     1.499779772065
H      1.498079885721     3.163406170383     1.736693577534
H     -0.256719395449     3.469263071495     3.476177736983
H     -0.913809601505     1.565812961074     4.950939052590
H      0.195559610325    -0.655095639078     4.699740276507
H      2.010534337157    -0.956195055719     2.997949963682
C      1.681331920118     2.075424487252    -1.386252100299
H      2.370510147395     2.127018018035    -2.224388337235
H      2.150019841036     1.955235236024    -0.414433125786
C      0.337219087340     2.084546247868    -1.524860347460
H     -0.299083231046     1.994606541403    -0.654978270115
C     -0.369234931319     2.156113906403    -2.814961294507
O      0.284077580164     2.210848014361    -3.892528640838
O     -1.773083089579     2.061237089195    -2.821073203848
C     -2.397411055949     2.103203263491    -4.112075238360
H     -3.499826440489     2.032133839522    -3.992458797835
H     -2.166591467662     3.061112414450    -4.631666350681
H     -2.058220947393     1.250607309968    -4.743379629665
Pd     0.294879717385    -0.309179187331     0.955399678902
C      1.039413151156    -2.588719012063    -0.632580154250
O      1.565274369363    -1.753406350578     0.332741752724
O      1.580681054915    -3.650819282886    -0.949599339366
C     -0.287941441223    -2.079998248673    -1.306663689891
H     -0.975467011515    -2.935624979883    -1.367583208181
C     -0.010517161775    -1.550676238100    -2.697260227495
H     -0.949331360793    -1.195544560904    -3.167099097591
H      0.702089267020    -0.701770818323    -2.635087462513
H      0.434612133749    -2.348308912524    -3.327909791255
N     -0.817333808805    -0.996994034342    -0.505980240642
C     -1.910962586770    -0.307990681038    -0.280833908687
O     -1.827973959210     0.594913551045     0.667015387595
C     -3.162192647027    -0.517293183835    -1.021689232252
H     -3.417893898057     0.436643374928    -1.513388709963
H     -3.020799419824    -1.314510639357    -1.768354995303
H     -3.944421931316    -0.795258970257    -0.294647954867
N      3.365738951622    -0.625072785581    -2.275985042790
C      3.729527286972    -0.349078564827    -3.566427673820
C      4.793668056551     0.500143268862    -3.817929649221
C      5.501320940585     1.063908453453    -2.775730859101
C      5.117168764661     0.765432184422    -1.493513488992
C      4.025507405282    -0.109079104531    -1.301284889319
H      3.173983146949    -0.786913394543    -4.387466982692
H      5.067540349094     0.716771355886    -4.837157171832
H      6.340381715863     1.727482620728    -2.966599307906
H      5.622436707393     1.157241883945    -0.634373312328
O      3.716642310224    -0.327814714646    -0.007034341757
H      2.960003550604    -0.989069880702     0.087895514318

