# STO-3G

title

0 1
C      2.297773226575     0.078673252528     0.483270145276
C      3.380134054790     0.836522931493    -0.051763445123
C      4.360814014904     0.217410820854    -0.832173710688
C      4.293601786554    -1.177454362743    -1.097804831447
C      3.248353529610    -1.945274002870    -0.573974672768
C      2.240253995754    -1.323060348623     0.217913385649
H      1.580956702912     0.525217686513     1.178192252233
H      3.430715325090     1.902397873834     0.150898175835
H      5.177625866181     0.803123329645    -1.245967573036
H      5.059656677331    -1.646727671716    -1.709835955158
H      3.201549305591    -3.014998529029    -0.759772558491
H      1.489119491047    -1.932047374676     0.715992606850
C      0.479982206192     3.100400003636    -0.262957742357
H      1.024447613211     4.029757308534    -0.113810197407
H      0.793800103184     2.494174421697    -1.109327807262
C     -0.510835963143     2.682287374022     0.557109836391
H     -0.995712681869     1.733822165184     0.382534966223
C     -0.987312170733     3.399359159969     1.750034590935
O     -0.401697568058     4.450011132927     2.133092102737
O     -2.100317375709     2.890364045162     2.441660219884
C     -2.429746008712     3.546021686623     3.673112857104
H     -3.314322735678     3.049105187951     4.126131788656
H     -1.585345622126     3.473457330349     4.395206902007
H     -2.680614497807     4.616455423240     3.497648792316
Pd     0.739438557056    -0.177895765066    -1.295194188402
C     -2.127398604178    -0.407883797337    -0.962289249951
O     -0.959563771681    -0.585997911141    -0.259140352159
O     -3.239610180686    -0.579638114437    -0.450126358012
C     -1.953621337245     0.051308307569    -2.456943295142
H     -2.570900727149     0.952386798791    -2.585231324644
C     -2.427011097870    -1.021032548008    -3.415026773786
H     -2.362174695739    -0.654292197298    -4.458385949467
H     -1.789665502737    -1.923220437955    -3.308058874426
H     -3.482093408949    -1.289920104007    -3.196436343806
N     -0.550124849022     0.297972338225    -2.694551946320
C      0.259453779259     0.904328740595    -3.531594128162
O      1.528662635360     0.882120836268    -3.212390057310
C     -0.223666806168     1.601321210263    -4.730570653411
H     -0.696983122837     0.858899770086    -5.393085126830
H     -0.947324539840     2.369288178768    -4.410636080431
H      0.640219728424     2.070055955897    -5.236180994135
N      0.386009826071     0.822265711210     2.848222094176
C      0.961036213889     1.617674472578     3.803752758510
C      0.630235170677     1.450645251071     5.136322979165
C     -0.272436854860     0.479194274624     5.515506996504
C     -0.830898313815    -0.304895146865     4.540571841566
C     -0.466243886608    -0.085529687256     3.193367667722
H      1.671723394641     2.381470166532     3.510011324313
H      1.087659423448     2.083652055450     5.878196111224
H     -0.534761845556     0.339575835361     6.560586866960
H     -1.542597114273    -1.075406591527     4.757914057312
O     -1.076765776695    -0.909479992204     2.335690766411
H     -0.989772088334    -0.723681853127     1.347749206259

