# STO-3G

title

0 1
C      2.775258598757     0.314615523701     0.716405978959
C      3.673430033135     1.164535933076     0.011031632349
C      4.526356871406     0.635164585131    -0.963225431083
C      4.511013694420    -0.755265210918    -1.253887985133
C      3.643625546024    -1.609614124274    -0.564384199632
C      2.763693031852    -1.081859199935     0.424184722488
H      2.184502413484     0.700119049286     1.544998046820
H      3.687826967327     2.226915444009     0.237119639163
H      5.200696653493     1.290350050013    -1.508489724413
H      5.174264141449    -1.153568886746    -2.017226502865
H      3.635956427719    -2.675697301304    -0.774953338307
H      2.158651575258    -1.751053256805     1.031581145618
C      0.230540743118     2.745216868219     0.571080105834
H      0.773729492010     2.934366492587    -0.354282511636
H      0.735391698856     2.188985388410     1.353436633015
C     -1.036024814495     3.163530884360     0.800254000295
H     -1.491317227023     2.915158646779     1.747651206911
C     -1.867944061793     3.927639331293    -0.142033432263
O     -1.463390753813     4.130228310431    -1.319796143101
O     -3.173697182315     4.276437889824     0.245066644079
C     -3.943246755145     5.004774308488    -0.721883725434
H     -4.945229369369     5.232103002617    -0.297985863881
H     -3.447277074138     5.968927213292    -0.976591762462
H     -4.085795637354     4.404629755949    -1.648725191407
Pd     0.903040962777    -0.099026846300    -0.742076412583
C     -1.676005795051    -0.334318296501     0.385508569918
O     -0.423443310243    -0.758541707960     0.635450853362
O     -2.529358864657    -0.239274109311     1.303286904801
C     -2.001881254711     0.070633973215    -1.093869422673
H     -2.628115412240     0.971502216504    -1.056071415317
C     -2.737622337416    -1.029761240510    -1.826053324525
H     -2.985984144283    -0.694794947354    -2.853222245036
H     -2.090511394598    -1.929314394318    -1.888236494822
H     -3.676231989752    -1.284109414387    -1.290852550945
N     -0.731368144559     0.296138771224    -1.754737759250
C     -0.207894620161     1.015850759900    -2.724001752738
O      1.098642439208     1.068672996767    -2.752813129228
C     -1.032957191298     1.695978664102    -3.730597917704
H     -1.619198582411     0.932686848834    -4.266463183418
H     -1.688957756024     2.410078886039    -3.206830596145
H     -0.363911762138     2.234259584256    -4.425762607419
N      1.432068078646     0.712275891100     3.633258203314
C      2.393840686480     0.026404154265     4.325261813747
C      2.073170416846    -1.151370079297     4.976497676090
C      0.782210330420    -1.635025280559     4.950655956743
C     -0.168935616413    -0.916391565154     4.273473817017
C      0.221005641621     0.284026974554     3.622528513755
H      3.412000450623     0.397267517287     4.340082454029
H      2.841589548383    -1.689122850539     5.506280949411
H      0.523560388301    -2.557880920411     5.462773341341
H     -1.191241916056    -1.232675859736     4.236608687492
O     -0.748802208018     0.991454016614     2.999357336890
H     -1.484509890933     0.451780038811     2.606198528463

