# STO-3G

title

0 1
C      2.572972813987    -0.170410427213     0.588122171179
C      3.472672420635     0.817479227754     0.087950328842
C      4.259287394267     0.554541469971    -1.037298714921
C      4.180738330865    -0.706470367507    -1.687357132480
C      3.318991673769    -1.697962249110    -1.205704435738
C      2.505720146974    -1.436059168394    -0.067288195161
H      2.045920868381    -0.025258260829     1.534884139495
H      3.540950646413     1.778702555692     0.590729915605
H      4.930085037514     1.316924102128    -1.424860326723
H      4.792604357839    -0.897923096203    -2.565201303834
H      3.266689611607    -2.667616997505    -1.693556013800
H      1.905558145690    -2.231950584334     0.367350177872
C     -0.241339233158     2.239539953390     1.541993005187
H     -1.204017369990     2.099065104708     2.030570979626
H      0.584341050663     1.704251318706     2.000078756605
C     -0.077359535366     2.977951367080     0.421093996394
H      0.893966249390     3.048399733824    -0.052075051232
C     -1.165169012110     3.682547663418    -0.275688960306
O     -0.904214811670     4.300229479646    -1.342573385247
O     -2.491152239507     3.542253331122     0.175186752878
C     -3.489069364834     4.254254576379    -0.569221681740
H     -4.486085840067     4.073339706378    -0.112046395603
H     -3.291200217024     5.350014322695    -0.547233041514
H     -3.521724194823     3.904304138365    -1.625372494946
Pd     0.671614641117    -0.031610921791    -0.824495058650
C     -2.071557136770    -0.460407963336    -0.029090646175
O     -0.795993690997    -0.683134972606     0.431912156746
O     -3.075072221352    -0.782971815433     0.619927288837
C     -2.187759535919     0.247765409027    -1.432713513101
H     -2.826547565946     1.130466480033    -1.284922271361
C     -2.831042754110    -0.667587078762    -2.453394868817
H     -2.992684777007    -0.122863689344    -3.403984414387
H     -2.169868967702    -1.538902647421    -2.639902376453
H     -3.813179969179    -1.026175908895    -2.079325864611
N     -0.858708020968     0.589220449357    -1.882119529093
C     -0.202941853116     1.267318386154    -2.795017153636
O      1.104953671362     1.226295882271    -2.693154061853
C     -0.871555524631     2.028694270996    -3.857689732086
H     -1.422151177899     1.322237174576    -4.497747321688
H     -1.550028307323     2.754893654718    -3.380683875022
H     -0.099757078147     2.559789157456    -4.443607942943
N      1.358635037647    -0.004972659819     3.474322580777
C      2.340352017784     0.248406526882     4.394916392322
C      2.053760913191     0.198571839712     5.746500630441
C      0.781762601874    -0.111086455304     6.180103608998
C     -0.179856733046    -0.367925615420     5.238663368431
C      0.165842697035    -0.308412827205     3.870582895485
H      3.340733657029     0.495608856641     4.059152723248
H      2.832694609218     0.403026401976     6.462111908458
H      0.548371946292    -0.152035822510     7.240621178099
H     -1.188428801043    -0.618852621813     5.500647085666
O     -0.855173910054    -0.577600835772     3.058763461860
H     -0.698373091803    -0.620382878290     2.062450837636

