# STO-3G

title

0 1
C      2.325469133612     0.593588058195     0.107767370407
C      2.868112268701     1.688751017963    -0.627734233779
C      3.762450493730     1.465713477910    -1.678475089508
C      4.147435309591     0.142065297597    -2.024173484275
C      3.641048789764    -0.948444009246    -1.309022747580
C      2.726830124608    -0.730746865950    -0.239351042397
H      1.714674243076     0.753036580470     1.001433943747
H      2.585474702701     2.704712526778    -0.363382182773
H      4.163461286271     2.306723878741    -2.238464599835
H      4.840345207612    -0.019594657526    -2.846161042961
H      3.945779261429    -1.961428404044    -1.558173320188
H      2.404539853463    -1.565084809056     0.378727686318
C     -1.648879837160     1.770383746331     0.465033369331
H     -2.169200848053     1.727174409616     1.417540771666
H     -1.941191018402     1.022715037807    -0.265053558562
C     -0.646421741443     2.636899545238     0.198648797379
H     -0.129743566358     2.592330143765    -0.751334337252
C     -0.167138103799     3.658457898075     1.142710744328
O      0.828802850393     4.361561670168     0.822748352656
O     -0.853623329004     3.872724719516     2.352770894466
C     -0.322006468786     4.896543551276     3.204133308584
H     -0.933662022489     4.956970791664     4.129518220617
H      0.726154226586     4.662831881923     3.496515234595
H     -0.353430302247     5.887319759045     2.697191858777
Pd     0.530334563950    -0.290908263639    -1.182156477803
C     -1.572150484795    -2.051243676596    -0.278060469644
O     -0.390140667438    -1.498979080562     0.163382405730
O     -2.211350271502    -2.865114941252     0.398877718612
C     -2.068950953625    -1.560965199493    -1.691104256294
H     -3.088768747938    -1.172043116637    -1.551828133091
C     -2.103147621770    -2.703523629098    -2.683953757354
H     -2.524311443226    -2.358086426882    -3.648427991342
H     -1.073339435534    -3.081163363588    -2.852644634725
H     -2.736161041397    -3.528883456721    -2.294854582499
N     -1.144865508651    -0.556860495736    -2.169505341386
C     -1.020029567928     0.380308466524    -3.082598978361
O      0.103067636231     1.047175007346    -3.070041690634
C     -2.091715483994     0.694758078033    -4.037012389563
H     -2.259898984085    -0.189588147560    -4.671972020148
H     -2.996223345584     0.953200334695    -3.462140117892
H     -1.769297787527     1.552746315590    -4.654986461797
N      0.903605846785     0.850001684778     2.890786956253
C      1.614680355229     1.684404875063     3.711393097455
C      1.104276263743     2.044759789530     4.945779405110
C     -0.123261889362     1.569289857236     5.358533786873
C     -0.809141567360     0.728024182446     4.522170928327
C     -0.236288473181     0.386601827182     3.277430422886
H      2.574514920882     2.068029039173     3.385603990681
H      1.672308407869     2.700685793930     5.583521080246
H     -0.533312845055     1.849462187608     6.324830292868
H     -1.762912784453     0.313362823348     4.778284883774
O     -0.993304893485    -0.444889605686     2.553900219634
H     -0.602287105676    -0.788249429483     1.698687777824

