# STO-3G

title

0 1
C      1.333393634560     1.655241519713    -0.984807625562
C      0.963421315624     2.012338427754    -2.310255574855
C      0.475734703084     3.294412435664    -2.579562803383
C      0.344497520682     4.245202933915    -1.534486130456
C      0.707807137030     3.911894344085    -0.223915026522
C      1.212441041760     2.614528581534     0.062298840630
H      1.802832961189     0.701706412693    -0.763480477841
H      1.053119425415     1.283471473638    -3.111253784415
H      0.183498049035     3.562636552406    -3.591414793211
H     -0.044036191215     5.236349047721    -1.755692534468
H      0.619269047815     4.643004105835     0.575535662574
H      1.614227138245     2.362742533002     1.041916161215
C      0.804571197787    -1.777278751218    -1.230931532685
H      1.851135899888    -2.000848934082    -1.429511736028
H      0.357209853470    -0.964867836630    -1.795432080935
C      0.082176802822    -2.443122302278    -0.303094973783
H     -0.938267060057    -2.143606492239    -0.108935327023
C      0.582797587171    -3.542620518170     0.536925393020
O      1.695921264659    -4.080386542020     0.284902210878
O     -0.256772344584    -4.036666524291     1.552978164888
C      0.332089075395    -5.016339429598     2.419062623829
H     -0.408989193178    -5.325662697001     3.186529835291
H      0.637607938648    -5.920788418380     1.845159762220
H      1.220191949192    -4.592728936312     2.942408109800
Pd    -0.585255962237     1.003682163024     0.326274218126
C     -3.036248672314     0.428243251088    -1.053640748458
O     -1.844045810239     1.068910199447    -1.235690726355
O     -3.865582506989     0.308421796284    -1.968144399402
C     -3.297889545650    -0.140352539636     0.392886419091
H     -3.644806125356    -1.177997099435     0.285782022540
C     -4.355019179302     0.669459281457     1.112516542816
H     -4.560315701805     0.230084155262     2.108454742362
H     -3.998429429498     1.712409644572     1.243012271788
H     -5.295984328449     0.676123525810     0.522928025972
N     -2.053886622594    -0.035377956543     1.130027536583
C     -1.481778087046    -0.535124839838     2.194430292064
O     -0.262391415100    -0.129500344330     2.440044053689
C     -2.138885477871    -1.538242698376     3.042076679073
H     -3.046394322904    -1.088774619363     3.475622370811
H     -2.384306510580    -2.410242972106     2.412065554945
H     -1.437346036390    -1.838550388725     3.841780427158
N      3.059929893128     0.196334991865     1.283042621572
C      4.238048154930     0.654145405096     0.753121339923
C      5.327009159392    -0.191459614825     0.646317503566
C      5.241503079977    -1.498850876968     1.077610708729
C      4.060277145991    -1.924722187932     1.624589234036
C      2.981546263387    -1.018611767074     1.713127227731
H      4.307614672767     1.676992093158     0.401434803923
H      6.243845200014     0.175713342515     0.215991093091
H      6.088218321246    -2.173676105634     0.985718768035
H      3.913316676383    -2.931480719566     1.961891023423
O      1.883920521379    -1.546668888879     2.265302065438
H      1.097411315833    -0.922608195524     2.358900461610

