# STO-3G

title

0 1
C      1.480670993705    -0.541154066846     1.758388335839
C      1.047279474184    -1.509143688047     2.709739183658
C      0.450486584762    -1.103381442399     3.907415132504
C      0.280242318548     0.278004593373     4.190598775200
C      0.711701163243     1.243229280664     3.274211630174
C      1.315331622808     0.844123774213     2.047708440107
H      2.026599648611    -0.876676262156     0.883231368961
H      1.191243116536    -2.564093686951     2.492386533448
H      0.111607739534    -1.846496650273     4.624971998584
H     -0.186876541730     0.583060738422     5.123694947106
H      0.595283971084     2.301408093886     3.492783418460
H      1.729826736304     1.590569126453     1.375936250444
C      0.368391617882    -2.307466822907    -1.141354248444
H     -0.638212166583    -2.457518702223    -1.520336342352
H      0.517453292787    -2.583948463342    -0.101121565322
C      1.369652410938    -1.769090213224    -1.881492581992
H      2.347985996969    -1.637766048611    -1.440886340234
C      1.220061758734    -1.281231648038    -3.262432787682
O      0.085356024378    -1.304281271844    -3.815999724285
O      2.358045619046    -0.816777497679    -3.941463370055
C      2.115339643024    -0.176391448460    -5.201607285918
H      3.081656748390     0.159138480965    -5.635213434099
H      1.634732474537    -0.878637390019    -5.919448736372
H      1.469350136031     0.721921024898    -5.068242788908
Pd    -0.409807389543     0.198591297426     0.467627590033
C     -0.137703877313     1.570622899689    -2.036825069536
O      0.562133071356     1.324471766224    -0.890334142153
O      0.372778436433     2.168669236956    -2.998591976938
C     -1.623752004210     1.040854727977    -2.067884386048
H     -1.747046933482     0.462498463366    -2.995277741443
C     -2.610767066222     2.188484135394    -2.065320920617
H     -3.645209936522     1.798325973647    -2.138359828430
H     -2.507314662013     2.763738163740    -1.122149365888
H     -2.417773901294     2.859209050422    -2.928788262420
N     -1.838545909180     0.249110083561    -0.872298758196
C     -2.609663506067    -0.733393630727    -0.455322364605
O     -2.310286792461    -1.266979892057     0.694836966171
C     -3.733517229096    -1.229889285730    -1.263227863125
H     -4.454925429220    -0.406558964060    -1.389224059535
H     -3.333234913423    -1.559447389224    -2.237098990660
H     -4.204180594318    -2.075999357499    -0.730668050553
N      3.379739097423    -2.917221427802     0.591828069336
C      4.349140992327    -2.534399713194     1.482002351064
C      5.244721556101    -3.466799141313     1.974676868379
C      5.175543093558    -4.784759022431     1.572476318864
C      4.199056357725    -5.139136088216     0.677959743439
C      3.314344686081    -4.145053511783     0.210574175013
H      4.409344526382    -1.500756118143     1.802614803270
H      6.001302333309    -3.155161964191     2.675887004669
H      5.877395299234    -5.521754701806     1.953584473892
H      4.086352985169    -6.141591087386     0.316682637302
O      2.400479705986    -4.604653423560    -0.667297831583
H      1.808485249063    -3.892672938019    -1.006242396155

