# STO-3G

title

0 1
C     -2.996848176657    -0.886701539540    -0.626009746738
C     -3.421978599251    -1.979357663771     0.180534507302
C     -3.219797333030    -3.293676024971    -0.253983200918
C     -2.597462503037    -3.549090394063    -1.504850920463
C     -2.187298513722    -2.486720407774    -2.318628701828
C     -2.381529743823    -1.143744995875    -1.885856082827
H     -3.215685322934     0.140871680276    -0.356164084897
H     -3.905512511715    -1.789165982454     1.134489680032
H     -3.535933566542    -4.125737976077     0.369389377541
H     -2.444748291568    -4.574676375421    -1.830464365455
H     -1.730255941459    -2.676539206675    -3.285907889171
H     -2.176336812098    -0.309727166223    -2.550111554684
C     -2.808358795560     1.275125502123     2.217594017928
H     -3.552213291637     2.057997012544     2.339434255565
H     -3.184745663251     0.267731366832     2.063443052932
C     -1.479761319014     1.516900824789     2.209294103679
H     -0.794122440060     0.702388856561     2.021542137992
C     -0.858631088239     2.840003651749     2.368750123075
O     -1.508466277609     3.784502817303     2.896295515001
O      0.526921412805     2.945797779657     2.156619571848
C      1.025183400415     4.284206010267     2.030004552219
H      2.117867531762     4.254855466880     1.832127251243
H      0.538123263457     4.801806360653     1.170975129634
H      0.852529103133     4.865313815623     2.964148086267
Pd    -0.606486879334    -0.710311258631    -0.294734563084
C      1.082101548787     1.609132853830    -0.722990222239
O     -0.126089821846     1.082716471571    -1.113116003835
O      1.474329549637     2.716926815151    -1.105229768960
C      1.933949073815     0.685460567933     0.227945813698
H      2.244223241469     1.295440543433     1.087780302888
C      3.167614369204     0.168878827655    -0.481684686707
H      3.784470181878    -0.430350526174     0.216782051031
H      2.864268732090    -0.470630254841    -1.336305123674
H      3.775579976504     1.018869431843    -0.856973457893
N      1.114886911582    -0.445368334654     0.607212222857
C      1.036934916664    -1.388158226307     1.519646785933
O     -0.009096546396    -2.167920676595     1.451911972477
C      2.038804646842    -1.530812557996     2.584374417562
H      3.008597767859    -1.763002232308     2.115859659900
H      2.082451706625    -0.578780467096     3.139722219937
H      1.727265942764    -2.354568905985     3.252086492810
N     -2.270672118257     3.907932243172    -0.173028210083
C     -2.830443692967     5.023481197634     0.392082962995
C     -4.165283448077     5.317789850125     0.167862343345
C     -4.940124030469     4.494350945381    -0.622922219827
C     -4.353487800116     3.385427712404    -1.176066168422
C     -2.986781630476     3.143048398391    -0.915401650995
H     -2.226711470940     5.672161832521     1.015911206920
H     -4.595173781311     6.195040284972     0.621335789175
H     -5.987914491885     4.719109728187    -0.802165853969
H     -4.887805313285     2.702275063108    -1.803912480776
O     -2.509771636994     2.024308231962    -1.495756588619
H     -1.525842848663     1.874715490844    -1.342596416296

