# STO-3G

title

0 1
C     -0.201137124909     1.055807059758     2.474006942119
C     -0.563723221962    -0.098443715341     3.224554836862
C     -1.907958546366    -0.345466353606     3.520587656433
C     -2.915223326930     0.558959374996     3.089926819478
C     -2.572980395832     1.712841451745     2.375578044789
C     -1.209834389507     1.973982972504     2.057998710747
H      0.846302571577     1.284523886812     2.320140557673
H      0.222503624798    -0.763149577207     3.569058567791
H     -2.185883635586    -1.231536719885     4.085166360097
H     -3.956714960737     0.354347043044     3.323896768633
H     -3.339962055274     2.417033253490     2.065488855748
H     -0.923116108799     2.913431861393     1.593566849652
C      1.451735864908    -2.495901952512     0.640019018668
H      1.859177260202    -3.305402033827     1.242490660665
H      0.407730443897    -2.241237935650     0.804010695451
C      2.180065846057    -1.834095898413    -0.294960148301
H      1.726282097477    -1.028188871289    -0.845329011080
C      3.595928799222    -2.077918533337    -0.612745492245
O      4.247991112671    -2.931388756840     0.048108180130
O      4.155788158346    -1.433366344326    -1.730053256920
C      5.560437201032    -1.640551580725    -1.930448906830
H      5.891432329294    -1.074301011689    -2.827304220300
H      6.140713180673    -1.272111249443    -1.053912356781
H      5.782956357625    -2.719068979311    -2.096153917074
Pd    -0.589203845244     0.616650620472     0.167369852298
C      1.125181795168     1.793003695293    -1.788915363588
O      0.696283966829     2.001801005516    -0.511618142680
O      2.048624734805     2.456583887796    -2.288863615280
C      0.373300452605     0.664185703961    -2.598151018698
H      1.139381263994     0.055693134229    -3.099878121216
C     -0.551931887461     1.262533241895    -3.636454723155
H     -1.049275436807     0.457466277844    -4.213412193357
H     -1.327437647004     1.875596063352    -3.132210607872
H      0.025000405626     1.903765351775    -4.335615535073
N     -0.420234018379    -0.096591564318    -1.654737144727
C     -1.094665589891    -1.217902727697    -1.528288964072
O     -1.643844943272    -1.432297477013    -0.362370924094
C     -1.194427604918    -2.215242578102    -2.602827053898
H     -2.263118865464    -2.339972600673    -2.845795151619
H     -0.628043663504    -1.871557495450    -3.483066625183
H     -0.773571081312    -3.162667659959    -2.222509989092
N      3.458790943901     0.762241116284     0.773719715835
C      4.048995055428     1.876307203855     0.238175103520
C      4.494995832637     2.887865788259     1.073058981993
C      4.333793482570     2.790207403681     2.440511900394
C      3.728436024328     1.667164496477     2.945099126319
C      3.302064479219     0.671053466364     2.042413781277
H      4.186026887314     1.952393532455    -0.833653109439
H      4.956391782706     3.760266068985     0.641521481088
H      4.673833943021     3.584486450150     3.099272255605
H      3.560855917356     1.522859183062     3.992925157068
O      2.677947861762    -0.383016970544     2.630733563832
H      2.377818309595    -1.029201727979     1.946695924708

