# STO-3G

title

0 1
C     -2.993634728331    -0.348989219225    -0.721108354295
C     -3.469341144521    -1.602043498834    -0.244097877245
C     -3.336060536368    -2.748300753570    -1.034962539516
C     -2.728552560572    -2.669897861049    -2.316696915607
C     -2.266399858552    -1.442245528543    -2.805059304480
C     -2.396630893311    -0.266126483405    -2.012159154628
H     -3.165726810655     0.572683297355    -0.176696598543
H     -3.934776558459    -1.665652297633     0.735862876402
H     -3.690546469892    -3.707057403065    -0.665556559007
H     -2.625648910577    -3.569180304260    -2.918657486209
H     -1.817682137136    -1.375733793550    -3.792643578297
H     -2.167956928459     0.719231464533    -2.406977340432
C     -1.548527033045     0.557183500838     2.430900466328
H     -0.525106324054     0.212252811667     2.547214269516
H     -2.278741604063    -0.213962337334     2.205404411837
C     -1.897987390324     1.857607999725     2.552440810701
H     -2.926272819144     2.167532242371     2.412542699021
C     -0.954956496519     2.956341470381     2.811688553809
O     -1.410940294329     4.089756975650     3.123546264990
O      0.430449623741     2.697011390300     2.817628101014
C      1.271017310860     3.859310901566     2.824509475979
H      2.336585351714     3.547980180462     2.798092261755
H      1.076851477094     4.487429541789     1.923704408133
H      1.104522088489     4.466416443924     3.742987641475
Pd    -0.594075453694    -0.395563741901    -0.403769707576
C      1.322794497653     1.767736539929    -0.224773253854
O      0.070858645662     1.500632274958    -0.724902176569
O      1.851891920026     2.881396719170    -0.337793519020
C      2.032897012684     0.572901612311     0.513119102066
H      2.269018084719     0.924839724777     1.528740352135
C      3.315275214855     0.181436862627    -0.189784888013
H      3.839183050279    -0.607171059390     0.384965820396
H      3.079451414634    -0.204107563735    -1.203358257326
H      3.986051657524     1.061771145975    -0.279585255914
N      1.136242468546    -0.561887143466     0.507365517595
C      0.939743639684    -1.704689474144     1.126972384125
O     -0.168512598014    -2.332524226557     0.833427997471
C      1.885831620389    -2.235094991491     2.118025555206
H      2.839997781376    -2.439555780043     1.606351670949
H      2.011720055650    -1.478518003828     2.910263508044
H      1.469136273975    -3.169317708334     2.536519471627
N     -3.353077108191     2.736095645287    -1.252858211103
C     -4.660128798653     2.924874517616    -1.614515824489
C     -5.395545569239     3.950529521089    -1.046761348973
C     -4.818739788117     4.794836924603    -0.119609107582
C     -3.506582849306     4.589491816438     0.216210556093
C     -2.802499168801     3.533056456547    -0.399948397644
H     -5.119118913401     2.259579576068    -2.336449158261
H     -6.424757023175     4.087126761152    -1.333717271747
H     -5.390019132403     5.600231058026     0.333981655167
H     -2.990933093003     5.197230280072     0.935708679291
O     -1.535802408287     3.418992971688     0.008428276062
H     -0.996714341336     2.685137253257    -0.423593609568

