# STO-3G

title

0 1
C      2.573020695109    -0.106617142261     0.587424513295
C      3.657626783660     0.511813975212    -0.100607421012
C      4.416884586335    -0.216510120008    -1.021058378268
C      4.122742516715    -1.583871192444    -1.271526149623
C      3.075360427778    -2.216166177896    -0.592781673916
C      2.288723885507    -1.483065392718     0.340720820189
H      2.040586109219     0.422939296681     1.377418120591
H      3.890806849732     1.553886803328     0.098798296906
H      5.234365822418     0.263076055614    -1.552722407985
H      4.717840385467    -2.139250110389    -1.991757003350
H      2.859648379959    -3.266944935578    -0.765789780555
H      1.545514165968    -1.991179713688     0.950210911687
C      0.663556134856     2.735136080195     0.333539709626
H      0.792246983652     2.361929662531     1.347386364391
H      1.509013149159     2.638311550367    -0.345138487433
C     -0.513496622771     3.223399647944    -0.120456092570
H     -0.622253575879     3.489055246552    -1.164814237421
C     -1.732492872067     3.368704037921     0.691675053159
O     -1.669449904833     3.330746213938     1.949167780018
O     -2.953777426472     3.570252450454     0.023781335127
C     -4.125694483693     3.518587693086     0.850005361792
H     -5.029107402068     3.674641046381     0.222910926708
H     -4.214938474039     2.523161999113     1.344711830669
H     -4.098662569845     4.314736225580     1.628370125547
Pd     0.744775356122    -0.127881025817    -0.956604037205
C     -2.042790630772     0.025834382816    -0.190423151720
O     -0.825223420030    -0.345337566592     0.313187225919
O     -3.065296816781     0.077170117370     0.504145843974
C     -2.047380481803     0.393427260815    -1.720413383371
H     -2.574918220884     1.353019423900    -1.815119412952
C     -2.772073551741    -0.658286534888    -2.532718251019
H     -2.815751904601    -0.351884040094    -3.596648896187
H     -2.230869289595    -1.624147943696    -2.456490128883
H     -3.807782235787    -0.786650293216    -2.153536975191
N     -0.676570590909     0.460455340027    -2.172716529916
C      0.059480293908     0.975332924971    -3.129789545835
O      1.352745991785     0.824789756339    -3.002898556235
C     -0.525648880940     1.709527973246    -4.259815438593
H     -1.166586823374     1.013567222672    -4.824949756736
H     -1.112737756567     2.550051669168    -3.854795099985
H      0.295101689455     2.081325571200    -4.899846101359
N      0.986906126132     1.061121563661     3.199709224455
C      1.568864919354     1.871847817770     4.137269708434
C      1.613685051364     1.480359834623     5.463159807411
C      1.061730802980     0.279075665907     5.855356658148
C      0.469982595827    -0.505947869237     4.901033802096
C      0.441375006306    -0.052112900753     3.563036144359
H      2.009638740033     2.813913538836     3.833129135944
H      2.078763555149     2.124155378492     6.190514440985
H      1.090512635064    -0.034459763096     6.895249738478
H      0.008870114697    -1.444206881538     5.133178146202
O     -0.172011198037    -0.897417885848     2.727672600351
H     -0.449149866477    -0.555523374512     1.812156037222

