# STO-3G

title

0 1
C      2.870095880490    -0.227082959860     0.057396821831
C      3.533137798461     0.891855789173    -0.522799125582
C      4.018950168396     0.824758149856    -1.831823657735
C      3.865014623830    -0.364737918885    -2.592218077485
C      3.237313748940    -1.483396800770    -2.033121358245
C      2.735040392774    -1.425364899017    -0.702944137214
H      2.581420048175    -0.221129866090     1.105056095711
H      3.666231081083     1.795180525677     0.065442586526
H      4.516424352066     1.684733887293    -2.272327227416
H      4.242433219729    -0.405466130364    -3.610711124238
H      3.135998808341    -2.402272386231    -2.603913677757
H      2.339698054163    -2.320302507677    -0.229922067255
C      0.318041260877     1.978135311661     1.237515946039
H     -0.701883588231     1.658039411745     1.430494325524
H      1.072298127697     1.401540167862     1.763854156737
C      0.659699578235     3.012168394233     0.434887742831
H      1.703081874445     3.255969189123     0.289984260972
C     -0.284009685454     3.851165960170    -0.320051850496
O     -1.525790050611     3.634230306450    -0.244902659742
O      0.223737749996     4.928844689318    -1.067344704577
C     -0.742051464449     5.693844624577    -1.801277701334
H     -0.224080755705     6.509578533920    -2.350082905317
H     -1.267851450448     5.054257258897    -2.545533487080
H     -1.487032624740     6.155105763637    -1.113909230707
Pd     0.579171928251    -0.292853760604    -0.757174967109
C     -1.534129821101    -1.705410013968     0.623974842729
O     -0.162774815722    -1.581589384424     0.619229707771
O     -2.119601356641    -2.470330724572     1.396576479497
C     -2.295920401389    -0.799378995345    -0.413611654731
H     -2.964782858650    -0.153134026847     0.174751903405
C     -3.119851974253    -1.639169949395    -1.367808817825
H     -3.746629501505    -0.987484769298    -2.006364234493
H     -2.444477471922    -2.241772844457    -2.009464271521
H     -3.788486624840    -2.319422052369    -0.799197229057
N     -1.319909370759    -0.042897399398    -1.171906700574
C     -1.242366143312     0.966240219060    -2.014302540434
O     -0.039367587302     1.357058173145    -2.335794652047
C     -2.434421819673     1.629917959363    -2.560784040334
H     -2.982692046751     0.905085892543    -3.181571475456
H     -3.043460381381     1.981069553000    -1.710097767858
H     -2.105962661887     2.488724494593    -3.172258473497
N     -0.694261115241     0.062114691237     3.620222386651
C     -1.304255765839     0.717143147319     4.655537249108
C     -0.574880723286     1.063600650821     5.780192926769
C      0.764840434969     0.744155214554     5.870747420570
C      1.346348261113     0.079527649866     4.821612620082
C      0.548249281859    -0.253044129960     3.705623774060
H     -2.354820662346     0.973673297202     4.585691846475
H     -1.062502433191     1.582898035478     6.588309994162
H      1.342862543337     1.010033062096     6.751638379991
H      2.376936266736    -0.211870943286     4.824237283950
O      1.214010294024    -0.901793475285     2.727726481294
H      0.602924132312    -1.232851503252     1.994017351305

