# STO-3G

title

0 1
C     -2.622537402858    -0.197648878077    -1.636237430196
C     -3.254129431360     0.930006030177    -1.044954377306
C     -4.310114458004     0.752962139819    -0.146104834868
C     -4.759450062372    -0.550950308057     0.182798435469
C     -4.152534319613    -1.673586466656    -0.392703579955
C     -3.079346176837    -1.507610749943    -1.311084089330
H     -1.875009409343    -0.043453792144    -2.408958349274
H     -2.893161300770     1.923883854940    -1.290122529362
H     -4.779812127036     1.618041424567     0.313808665053
H     -5.575538877723    -0.677600343323     0.889449202684
H     -4.500288217227    -2.674246254410    -0.151187970884
H     -2.681995787144    -2.370583422537    -1.841487850270
C      2.335928976251    -0.136341477710    -2.002144300549
H      3.137451750682    -0.642463279091    -1.469737583148
H      2.186435177600     0.909061899653    -1.753007132011
C      1.554944974738    -0.767948961387    -2.910237623555
H      0.752609431216    -0.228862008214    -3.399799443669
C      1.700344033010    -2.180330665441    -3.300739219339
O      2.658650715906    -2.865407063247    -2.844748384919
O      0.803225616168    -2.711585661067    -4.244111867154
C      0.934760967663    -4.115383134630    -4.505727114379
H      0.172179852965    -4.423936812560    -5.252543682392
H      1.942036083969    -4.349075465401    -4.919206080459
H      0.769030026422    -4.704769398093    -3.574859226228
Pd    -0.992634008575    -1.140412068742    -0.107303440851
C     -0.137577667097     0.323378309375     2.193354677925
O     -1.184707497993     0.254445876309     1.323885740293
O     -0.096564714754     1.163284503282     3.107975177079
C      1.008087721674    -0.747265137621     1.998441538110
H      1.016939182355    -1.376821299713     2.901742846442
C      2.358739221582    -0.085541013110     1.833628683120
H      3.154551866951    -0.851569454899     1.759937960433
H      2.357147174244     0.534396888464     0.914966333404
H      2.571320722199     0.566000615177     2.706754575248
N      0.701790246976    -1.509689880770     0.804943313297
C      1.041198164927    -2.598590879981     0.152108633704
O      0.263529018696    -2.931537933952    -0.850406583031
C      2.228276036849    -3.391385742367     0.494127033819
H      2.259516147537    -4.269664379482    -0.175782156017
H      3.116371704042    -2.764475127010     0.316112869030
H      2.154515700124    -3.702263523108     1.549734441972
N      0.710887960214     2.498944348652     0.172567154483
C      0.873131370881     3.535839035779     1.052207263608
C      0.419628675620     4.800873698563     0.715364412189
C     -0.215941767399     5.018544655872    -0.491329850018
C     -0.383560656575     3.952665546657    -1.339485298696
C      0.098985432764     2.692025229638    -0.933621093402
H      1.372818758284     3.367358090383     1.999119019990
H      0.554130724717     5.612299128612     1.411052709168
H     -0.581273163878     6.006561353358    -0.757925609149
H     -0.881316817751     4.039156439465    -2.283530385985
O     -0.150949066937     1.684794903708    -1.812299867750
H      0.108726854706     0.826285610682    -1.403091441483

