# STO-3G

title

0 1
C      0.126481828167    -2.325209022426     1.282144747257
C      1.452813963713    -2.832330290345     1.223630771003
C      2.328210256137    -2.628839376283     2.294033128460
C      1.901784811082    -1.916909281752     3.445108892111
C      0.597580421016    -1.416176182872     3.523706867784
C     -0.304668280349    -1.618087871500     2.442924295978
H     -0.604312979149    -2.543083387933     0.510085673999
H      1.788072522528    -3.370148040568     0.340986109582
H      3.346591451115    -3.004867212514     2.241583114927
H      2.596383813582    -1.756579869024     4.265968800333
H      0.265079883705    -0.879685506835     4.408722561971
H     -1.355421886495    -1.347600871396     2.527232537306
C     -1.106365535855    -1.417060202112    -2.108183792136
H     -1.591164425132    -0.526572704358    -2.500248067073
H     -1.751409780467    -2.073310085160    -1.533304848149
C      0.207170417912    -1.685519114945    -2.285129072893
H      0.638363915208    -2.581764166663    -1.861719953618
C      1.155067622446    -0.823354461027    -3.009548486292
O      0.789018203668     0.313875030528    -3.419730154159
O      2.467999630895    -1.283889751791    -3.201779320609
C      3.379777118149    -0.355797672570    -3.805757914583
H      4.380875688845    -0.829965880860    -3.894489250475
H      3.037163446402    -0.067311277113    -4.824898716853
H      3.491413990245     0.556258535950    -3.177006165416
Pd     0.057425242559     0.019518616358     0.710135158445
C      2.425796937278     1.279124899794    -0.319005798534
O      2.037956356809     0.222519289688     0.453055050609
O      3.611018954270     1.451504828986    -0.647405440738
C      1.280814078078     2.265821160091    -0.760338678572
H      1.369808642679     2.419794099944    -1.845263981420
C      1.410111433945     3.599175929097    -0.055776923441
H      0.618939118247     4.291599585737    -0.405222274660
H      1.303283984559     3.451044745847     1.038855054020
H      2.402451215225     4.048478796923    -0.270325983494
N      0.019896326549     1.663905452217    -0.371910137472
C     -1.234721284573     1.721714407005    -0.736598870352
O     -2.047692330032     0.890464982262    -0.141756619992
C     -1.702022359621     2.628940455427    -1.792741325534
H     -1.506263668611     3.664452752826    -1.471405781166
H     -1.142306866000     2.386821011245    -2.713938683957
H     -2.784522469785     2.469590297949    -1.947269709819
N     -3.065677881986    -2.338651858162     0.721101944039
C     -3.227360421414    -3.549970807658     1.341927440953
C     -4.349323673208    -4.316920356061     1.088173649143
C     -5.318897705883    -3.870911300817     0.215450876157
C     -5.139330649372    -2.652855185410    -0.385377591323
C     -3.978344288453    -1.905626276147    -0.085995584396
H     -2.467365789756    -3.909965730405     2.025744852704
H     -4.462318493537    -5.269438842009     1.579156506261
H     -6.203316152613    -4.468562892665     0.011431978506
H     -5.853616483559    -2.240055076689    -1.069009770567
O     -3.922104190580    -0.738142946121    -0.731321926918
H     -3.161284120853    -0.115332784678    -0.487696579486

