# STO-3G

title

0 1
C     -2.919590612820    -0.378533449833    -0.845278883461
C     -3.404392753197    -1.637312947755    -0.392433639346
C     -3.213554992723    -2.782979118780    -1.172330605957
C     -2.536717037804    -2.698308435157    -2.418774728796
C     -2.059580209678    -1.466288345338    -2.881065259982
C     -2.248980478449    -0.291549971966    -2.098425515701
H     -3.133363923515     0.541648325651    -0.313593689871
H     -3.919395073683    -1.706698982556     0.561922599557
H     -3.577490128609    -3.745334874837    -0.821832986025
H     -2.392494282186    -3.596483450358    -3.014015549489
H     -1.555749654844    -1.395228371543    -3.841333497619
H     -1.999015715183     0.694086179949    -2.479405108713
C     -2.759456547886     1.161550164296     2.311486541818
H     -3.464432749598     1.990476954485     2.312277023099
H     -3.166960473490     0.172754218190     2.122879049057
C     -1.431575454256     1.336278423496     2.490844699813
H     -0.766592779853     0.487934469180     2.418114549092
C     -0.777257283870     2.635111786904     2.716273182426
O     -1.457321345304     3.634451775458     3.078054951487
O      0.627229442344     2.686429700907     2.666401421982
C      1.187855737600     4.003975490622     2.583289104443
H      2.294020583635     3.932928131455     2.510660095836
H      0.820201894101     4.528405089013     1.670124049847
H      0.931887510020     4.604708306624     3.485260197156
Pd    -0.562142770077    -0.376844261364    -0.343201059366
C      1.442045536123     1.715486069106    -0.327280376899
O      0.190044240742     1.446553000891    -0.831757416302
O      2.013791123828     2.793218525883    -0.535193769194
C      2.087515755129     0.567437389104     0.531973829227
H      2.387792717882     1.011718734489     1.492082439073
C      3.309831535430    -0.004362914522    -0.154784626405
H      3.789684251466    -0.764041031544     0.493011090052
H      3.009820460142    -0.481018863515    -1.110966192620
H      4.043730670388     0.802822865808    -0.361866435941
N      1.106629662913    -0.485340509356     0.681132265600
C      0.846580815552    -1.533374010567     1.430433703904
O     -0.279436356500    -2.148759022582     1.186408718307
C      1.743252095777    -1.965088071120     2.511322080426
H      2.704895444897    -2.262045881810     2.063142520975
H      1.872055843297    -1.118204536039     3.206095447246
H      1.280488091716    -2.824508330984     3.029703415015
N     -3.249905660375     2.724694546038    -1.253878991331
C     -4.575491273939     2.900124864313    -1.548911893181
C     -5.307665698442     3.876455909948    -0.896516107524
C     -4.708387496805     4.687207872934     0.046253132345
C     -3.377397603780     4.499882262376     0.310290208434
C     -2.679179666337     3.491866173186    -0.387433509317
H     -5.051617404627     2.260580711403    -2.282914482368
H     -6.351868214919     4.001210360312    -1.129692206078
H     -5.277036706230     5.452341362526     0.567706154018
H     -2.845503144092     5.077252586970     1.042238965356
O     -1.389964525299     3.390915831160    -0.047809981155
H     -0.876169914578     2.671459780547    -0.524135403966

