# STO-3G

title

0 1
C     -1.086237333793    -0.015181591485     2.641388680061
C     -0.184882147978    -0.046243426678     3.739941956641
C      0.148904534757    -1.265851785339     4.336089012663
C     -0.408473054257    -2.477840071236     3.852256085791
C     -1.304799436145    -2.464780330884     2.778514317668
C     -1.655778817501    -1.231729991254     2.162218087032
H     -1.432033131720     0.921515811671     2.214163829511
H      0.245185244202     0.880699221370     4.110866081491
H      0.848584300308    -1.291043187129     5.167456463150
H     -0.129822742016    -3.420076492992     4.317174986778
H     -1.740726933648    -3.391192864484     2.413493450751
H     -2.438588476882    -1.176886813545     1.408832832025
C      0.230564293540     2.780355101828     1.010186584028
H     -0.352268942004     3.408434223188     1.681224161774
H      0.752087938982     1.939858675510     1.459628897016
C      0.283849783209     2.989253350206    -0.323941596521
H      0.833812500144     2.302300785543    -0.950778442519
C     -0.407708536305     4.068007813739    -1.047507230610
O     -1.029145107083     4.962756746672    -0.411045834968
O     -0.251504606121     4.137948509713    -2.444347634953
C     -1.019750176523     5.153082204070    -3.104530009929
H     -0.827934283177     5.108940381207    -4.197864028497
H     -2.109003095784     4.991934080000    -2.935606077013
H     -0.733942014803     6.166293676169    -2.740891196810
Pd     0.033636818368    -0.558295401769     0.576326492481
C      2.779811254252    -1.350011534004     0.498583224034
O      1.748921396304    -1.197214662422     1.381866159981
O      3.845375230110    -1.899402608239     0.817026219201
C      2.548787364576    -0.748896316159    -0.940050663019
H      2.859576610995    -1.506456769742    -1.672715111989
C      3.373063738637     0.507821597086    -1.133323314494
H      3.198213629062     0.934913001112    -2.140562713663
H      3.089905220838     1.260285551024    -0.368327993448
H      4.452894569096     0.272487446680    -1.025589674557
N      1.142741845934    -0.403670438858    -1.050206457055
C      0.242120349131    -0.109768503819    -1.953964513945
O     -0.977423981894     0.063146763618    -1.517282655071
C      0.550436832946     0.040497359542    -3.382618315541
H      0.323972576247     1.083960520962    -3.665583550135
H      1.611075053318    -0.192914017867    -3.565551321177
H     -0.096519079439    -0.655874640229    -3.944423721364
N     -3.379105415426     1.203931263162     0.784446025024
C     -4.254242256913     1.319922432526     1.833052810810
C     -5.105502246968     2.406789807381     1.911513472187
C     -5.086214768878     3.381282902985     0.935826956837
C     -4.217147640268     3.231955492158    -0.112313363618
C     -3.373137308854     2.100442617778    -0.144703529669
H     -4.266834305853     0.563366532991     2.609059160946
H     -5.780709722024     2.492732120031     2.746545569938
H     -5.743727035030     4.244291591625     0.995979403037
H     -4.137751084143     3.954396199599    -0.898847943072
O     -2.571660149659     2.064367471030    -1.214494548489
H     -1.992075203969     1.244725489726    -1.297896074996

