# STO-3G

title

0 1
C      1.793753072174     0.172754320214    -1.620515702510
C      1.208300609376     1.101457517431    -2.531386377609
C      1.578489383607     2.449467708559    -2.503397126000
C      2.551353608776     2.906735472714    -1.574127317301
C      3.150686631989     2.011945603140    -0.681492143816
C      2.773141401701     0.638901713678    -0.693492856733
H      1.596492798070    -0.898961836283    -1.707776656349
H      0.471864028289     0.750717050794    -3.249801120215
H      1.119260477881     3.155733907668    -3.190298169998
H      2.827226542286     3.958033388389    -1.557389031308
H      3.904139696379     2.356090875186     0.021986659305
H      3.299493301666    -0.077051914052    -0.067112737768
C     -1.636612607450    -1.328135738425    -1.327957634572
H     -2.067224540549    -2.305915809150    -1.121541020195
H     -0.635492588473    -1.351312415042    -1.745025321753
C     -2.260517413381    -0.161599107896    -1.045975499059
H     -1.758591636850     0.780158901208    -1.223351978092
C     -3.596594989661    -0.049817601748    -0.436026835429
O     -4.247599186605    -1.089720402550    -0.144028537141
O     -4.083271849693     1.227926344427    -0.104426704964
C     -5.385209491506     1.264829150680     0.497196706752
H     -5.667692517570     2.319861335011     0.702052905946
H     -6.148779194525     0.828566205218    -0.186557011092
H     -5.391965544055     0.706609052769     1.460907438499
Pd     0.638857762941     0.472083675669     0.437140684568
C      0.431861634725    -1.436235644773     2.562886883378
O      1.014873169183    -1.319635041092     1.317090944891
O      0.800942792484    -2.273327338977     3.393630545020
C     -0.772382884519    -0.455821335444     2.834693281053
H     -0.670092297433    -0.084904139434     3.864232002289
C     -2.093130137582    -1.181885422113     2.690283893079
H     -2.937446540657    -0.480875962037     2.844506706639
H     -2.171243404380    -1.616916263921     1.671967993106
H     -2.161077976180    -2.000950642786     3.436444229195
N     -0.716233531409     0.604407651041     1.851689216266
C     -1.130064208463     1.828195430551     1.619272692055
O     -0.622965067091     2.403129330078     0.554844156894
C     -2.097001219021     2.530698788616     2.473384378086
H     -2.969398150495     2.779738492998     1.845455245756
H     -2.392050729640     1.879696418773     3.311267046440
H     -1.615672136133     3.452056310248     2.843819490691
N      1.316636343410    -2.939680096254    -2.071919611795
C      1.644421479459    -3.326866626191    -3.343926453134
C      1.251417346104    -4.566653658480    -3.813900066604
C      0.536299793108    -5.426199152841    -3.005875154457
C      0.231709934220    -5.018037722404    -1.733580303699
C      0.663274278326    -3.744904477568    -1.302722865599
H      2.201304190810    -2.652768641401    -3.984338113514
H      1.509726281410    -4.859761773744    -4.817991403131
H      0.225002292591    -6.402483267634    -3.367617123169
H     -0.313244896735    -5.634409758589    -1.046803423134
O      0.309410608156    -3.457191765253    -0.047475112749
H      0.684892074019    -2.612766293423     0.348984372712

