# STO-3G

title

0 1
C      0.926701730719     0.774648337689    -1.523304182951
C      0.181727901123     1.911503849652    -1.954117710531
C      0.716368963545     3.197867970816    -1.838479489972
C      2.012614675596     3.389042862925    -1.289361422208
C      2.769505020377     2.288742464331    -0.874153875494
C      2.234948852529     0.974158208901    -0.990697449644
H      0.565914487159    -0.242773329038    -1.698683443732
H     -0.803983236827     1.773196882850    -2.389430326248
H      0.139111816875     4.058571531883    -2.166885858107
H      2.416553715401     4.394333517367    -1.198125785739
H      3.769724917935     2.426643219098    -0.471856489432
H      2.857594716574     0.112970018636    -0.762544982740
C     -2.315934049652    -1.054589541314     0.443214166084
H     -2.597232458260    -2.104435385052     0.417078415120
H     -1.846084824314    -0.707021774683     1.355658353599
C     -2.458623583041    -0.221607253295    -0.611396503147
H     -2.100558706948     0.795140689403    -0.536294859200
C     -3.051972803341    -0.604252074447    -1.903475170512
O     -3.643499140786    -1.711164590453    -2.027321792423
O     -2.981157347134     0.307871343829    -2.972097267310
C     -3.563373661938    -0.131144902217    -4.207275289641
H     -3.441191305039     0.662499975279    -4.975364268920
H     -3.060735321262    -1.054520785320    -4.574834872307
H     -4.652142647311    -0.329602947324    -4.081937470680
Pd     0.712239337369     0.506832638638     0.849687062222
C      1.817092123661    -1.556058123196     2.490668914622
O      1.729257644414    -1.220185105033     1.153826658744
O      2.676500575693    -2.329815365193     2.925169356671
C      0.711726380768    -0.917123938736     3.416763406221
H      1.208425841789    -0.578376058897     4.336875471581
C     -0.346829824272    -1.942733417110     3.765874929958
H     -1.149944539106    -1.477712397999     4.371413815938
H     -0.788475795916    -2.358658126463     2.836204040555
H      0.108123733266    -2.772786326421     4.346289340646
N      0.090004734482     0.169854962896     2.686014720292
C     -0.605304279390     1.271694286843     2.870764463061
O     -0.755460101389     2.033285709479     1.818242388378
C     -1.192294801478     1.646831369670     4.164612648276
H     -2.285957967526     1.703925902668     4.029959250869
H     -0.930693319235     0.894249051866     4.925181022321
H     -0.790091561123     2.636090125994     4.444685296110
N      0.086850973019    -2.252132132844    -2.100661792942
C     -0.297153476087    -2.412377984546    -3.405333313152
C     -1.079476031902    -3.492290529876    -3.770322964183
C     -1.478249471556    -4.415883396435    -2.825507998497
C     -1.055894009321    -4.247057356925    -1.532192813706
C     -0.257938546988    -3.126470971739    -1.219008789430
H     -0.000145015688    -1.679790666397    -4.146602219973
H     -1.389162760316    -3.603125795428    -4.795457590908
H     -2.104563803164    -5.259798496468    -3.101030775617
H     -1.321462250322    -4.926558273827    -0.748835047026
O      0.081912071460    -3.051785034617     0.076285961352
H      0.725963211642    -2.323118041756     0.304030206126

