# STO-3G

title

0 1
C     -1.405925746454    -2.163040666880     1.152386355808
C     -0.859150900705    -3.346247945779     0.581911274968
C     -1.507730564408    -3.969241281835    -0.490945861972
C     -2.707737163893    -3.426311578230    -1.021682807857
C     -3.254166986820    -2.259629224616    -0.475266352631
C     -2.608288231382    -1.613840999807     0.618785965143
H     -0.946432708266    -1.725288421694     2.033001539367
H      0.072400429669    -3.739524841649     0.976689542004
H     -1.085373207912    -4.871190530104    -0.926328869333
H     -3.200072401925    -3.919325354225    -1.855889268863
H     -4.176336804472    -1.843100775311    -0.871049896121
H     -3.082342790090    -0.765975039231     1.105104582591
C      0.629801116241     0.110705895199     2.918754100640
H      1.382882084958    -0.362196702689     3.547850539745
H      0.831432371182     0.058783483565     1.852665700940
C     -0.483287803670     0.711166332795     3.398848375236
H     -1.191191290772     1.144470187043     2.706083901137
C     -0.825055905141     0.826887217702     4.826562746757
O     -0.054059852706     0.346217576856     5.702082885520
O     -2.038043678707     1.442115484754     5.182473690910
C     -2.316031687188     1.517353868304     6.587593494685
H     -3.293488308423     2.022997416517     6.741933833192
H     -2.376324654117     0.498897536927     7.033954931071
H     -1.532150742196     2.107280577717     7.114440792015
Pd    -0.765489695101    -0.316236138548    -0.279077070027
C     -1.034760375092     2.513589128025     0.094099023260
O     -1.651985262917     1.339962863043     0.432930254371
O     -1.412815072409     3.604661519852     0.544571422858
C      0.186325941708     2.394092213753    -0.895276245372
H      1.026782020992     2.940861411190    -0.445936558961
C     -0.142260202833     2.994314830170    -2.245138122799
H      0.744489687395     2.947978976543    -2.907746392823
H     -0.972778271785     2.425162365392    -2.711995299535
H     -0.446383195285     4.055626354981    -2.126525044133
N      0.474753585230     0.986696582540    -1.074553361229
C      1.449514148378     0.200112129622    -1.442569100170
O      1.227307469043    -1.090356647989    -1.309184119507
C      2.733446005262     0.710980520416    -1.931800448550
H      2.550789544127     1.292641020875    -2.849294860074
H      3.169692386173     1.337967163067    -1.135987747739
H      3.397784676808    -0.146918505139    -2.140864844754
N      3.417517853470    -0.332979754343     1.150483741688
C      4.289716372844     0.383297584926     1.925789765806
C      4.788769340591    -0.164289554648     3.093574184375
C      4.419040385808    -1.434488897063     3.485489652956
C      3.549181888296    -2.131188499841     2.687281201767
C      3.070389440112    -1.520860611050     1.508049799310
H      4.581153527454     1.382709661640     1.624948031423
H      5.467531128646     0.410603844385     3.702028491003
H      4.803950313407    -1.869259435867     4.404194959533
H      3.212997861015    -3.119258461457     2.930128667002
O      2.198668184731    -2.281328856360     0.821760073719
H      1.886481228863    -1.849063752111    -0.033676687297

