# STO-3G

title

0 1
C      1.265395158688    -1.147395229590    -0.797186925222
C      1.249932139078    -2.520087503877    -1.110674110987
C      2.452600384066    -3.157029056399    -1.482109826458
C      3.661162355212    -2.435739207052    -1.528932648837
C      3.668563720890    -1.069976365973    -1.188829451648
C      2.470864888168    -0.417797251164    -0.825890840218
H     -2.737659109885     0.752383010507    -0.319542876909
H      0.332726072102    -3.093179666803    -1.027914800789
H      2.439553042507    -4.218394997044    -1.720923893475
H      4.586252205254    -2.932813586928    -1.811791736274
H      4.600167566522    -0.506562837564    -1.191251567956
H      2.501328710030     0.632090453914    -0.544781429197
C      1.017173397185     1.062282379186     2.563271034624
H      1.878475034063     1.722455275911     2.482971139881
H      0.052106160944     1.553656579094     2.624774877228
C      1.118323412739    -0.288305121558     2.569125909939
H      0.231237896775    -0.905866888996     2.601230057110
C      2.385973368890    -1.035370337211     2.490807874459
O      3.481879456941    -0.413628821158     2.420722648076
O      2.344548726642    -2.438438195531     2.553363737152
C      3.596296189478    -3.110056868016     2.360182638531
H      3.435005474185    -4.207934010726     2.412038219010
H      4.020559518036    -2.869113354935     1.359472996976
H      4.325514011067    -2.824529227044     3.151563539447
Pd    -0.469187021969    -0.292783962688    -0.296556707863
C     -2.350756063828    -2.365490633994     0.666773213395
O     -1.069919291769    -2.013140000185     0.671627988893
O     -2.802913868762    -3.498846428074     0.941974911417
C     -3.398818699342    -1.227813290444     0.315228262090
H     -4.254907759663    -1.381844476715     0.982701947030
C     -3.892654437308    -1.348335765137    -1.110575595670
H     -4.665927822340    -0.575524535635    -1.303929874799
H     -3.051453989731    -1.200415008026    -1.817265838405
H     -4.339144960751    -2.351433973492    -1.276478821685
N     -2.833889860517     0.133824890882     0.488365856703
C     -2.558679172243     0.766186443795     1.660824379335
O     -1.981920618569     1.886646734849     1.706734832499
C     -2.928681093723     0.113337940418     2.931213027755
H     -4.022989838292    -0.022635623300     2.950112161069
H     -2.397695560048    -0.849909969844     3.010970689193
H     -2.627301363043     0.767545063964     3.770698308791
N     -0.004666366789     1.400501297240    -1.424765013766
C      0.381589135571     1.119741593946    -2.711703266050
C      0.939009123632     2.102389049305    -3.501562595309
C      1.111639748513     3.376818998459    -3.013456192905
C      0.695851617357     3.642173737248    -1.736955673632
C      0.114407227114     2.616031721166    -0.961395244746
H      0.259751883159     0.117671041741    -3.106767761899
H      1.251715578214     1.862976029588    -4.504970342187
H      1.556938612945     4.154496668041    -3.628454040026
H      0.784732735080     4.619134991543    -1.304040006609
O     -0.269659794614     3.026400351631     0.227897223239
H     -0.911888982297     2.476170294884     0.801424613144

