# STO-3G

title

0 1
C      1.717275624369    -0.804633703062    -1.265521874645
C      1.884050841287    -2.159005222062    -1.613956353707
C      3.082625520920    -2.569178565754    -2.233734070787
C      4.110491911779    -1.641912503925    -2.493186785060
C      3.941919573949    -0.295373128018    -2.121241556565
C      2.744442903742     0.130404445184    -1.507135790026
H     -2.310231271413     0.238481201439    -0.145432714297
H      1.119165122661    -2.886982636760    -1.368009810051
H      3.214068525727    -3.616923878395    -2.495381368309
H      5.035527459885    -1.967235812195    -2.963398794705
H      4.737920711949     0.426217054446    -2.295193018489
H      2.637364227170     1.172904533897    -1.217785580618
C      1.808422318195     1.065861606982     1.864909886655
H      2.684263369908     0.764776327096     1.297987603007
H      1.445651668716     2.077605849023     1.699577239053
C      1.168188224225     0.227344286219     2.711995537994
H      0.277016658438     0.570501364642     3.218560729540
C      1.546922392360    -1.171629685465     2.965316243367
O      2.652926677775    -1.613857103757     2.553486124198
O      0.667817889841    -1.972746449943     3.715704846597
C      0.979014440894    -3.372967459240     3.742524292040
H      0.209264053159    -3.912761234426     4.334081696005
H      0.976803178979    -3.796442751665     2.711035129360
H      1.972692703498    -3.550855633990     4.212460087299
Pd    -0.007540018115    -0.278913334263    -0.407766275315
C     -1.309594705444    -2.679778370836     0.794146881252
O     -0.141195644254    -2.103937360142     0.542210155882
O     -1.472368148205    -3.851338335396     1.206236515118
C     -2.607796126958    -1.798767442580     0.564742318057
H     -3.337282267120    -2.125057047271     1.314591609772
C     -3.210559415608    -2.038249920888    -0.802964676085
H     -4.137780961198    -1.437495200743    -0.911607981000
H     -2.492226141417    -1.738099789912    -1.592128387784
H     -3.461468397232    -3.112861891994    -0.926022013268
N     -2.333062102962    -0.347020452002     0.693907792350
C     -2.156328097244     0.357148895401     1.839812093944
O     -1.720693930896     1.541280672609     1.856004382577
C     -2.483351626440    -0.288960794350     3.125535407156
H     -3.554092525944    -0.552918165460     3.120270501080
H     -1.846246322607    -1.181609137307     3.251747293098
H     -2.286057591661     0.423782115406     3.947589340666
N     -0.074328963455     1.510331652430    -1.487875789093
C      0.133268710216     1.364629160687    -2.836841428705
C      0.358329948335     2.470031144232    -3.629344128664
C      0.369379261081     3.732166683210    -3.082118368694
C      0.130649316719     3.857459576496    -1.740309851178
C     -0.115192800881     2.705902278982    -0.961905253478
H      0.136975555018     0.375449233780    -3.280208092493
H      0.536004951548     2.338833787574    -4.684496720410
H      0.551202564354     4.607099647011    -3.700824231303
H      0.101420460127     4.814310331856    -1.257194958424
O     -0.371489617044     2.978575184301     0.299250461015
H     -0.855724508183     2.302750726479     0.906733197266

