# STO-3G

title

0 1
C      0.381196048210     2.809620685145    -1.549596749529
C      1.119653553875     3.540197537327    -2.508877523707
C      0.996665387351     4.943787361190    -2.580153668229
C      0.144537457148     5.629191182938    -1.694494444098
C     -0.590617179385     4.903813276567    -0.736583939983
C     -0.480254873700     3.500736062458    -0.665523673464
H     -2.553072903033     0.298306949341     1.582927880113
H      1.783318166876     3.033340367144    -3.204181467761
H      1.569685347477     5.494034377231    -3.323470569631
H      0.055736911351     6.711425787706    -1.748342300100
H     -1.250430523188     5.424036227214    -0.045989159744
H     -1.061730420559     2.945839426164     0.064907981500
C      0.789003822767    -1.259998524030     2.321621737858
H      0.294421345942    -1.372213814304     3.281526054182
H      0.958812173551    -2.175013956743     1.760184416425
C      1.140389235951    -0.067149542494     1.797063532139
H      1.593516572876    -0.024309487998     0.814367244917
C      0.915174284592     1.237414593433     2.433837331865
O      1.211022367805     2.274758135459     1.782528753626
O      0.399505478896     1.314381420214     3.740889007479
C      0.198815298863     2.637880151688     4.256212947519
H     -0.208394170379     2.573574885214     5.288158576535
H      1.161351880402     3.196723060964     4.297084874152
H     -0.529422221788     3.199903110224     3.628096968257
Pd     0.308679585994     0.815943481528    -1.466583045236
C     -1.358905936428    -0.758730387662    -0.319310492720
O     -1.432359936757     0.560863281616    -0.279786158619
O     -0.492480325609    -1.313448187697    -1.097633679304
C     -2.261167800086    -1.547192849307     0.624831156527
H     -1.737088714650    -2.449050600351     0.954469530797
C     -3.570313701233    -1.945514731921    -0.023084668645
H     -4.165388636630    -2.548105518332     0.694334068354
H     -4.144724938332    -1.031449670800    -0.279877544977
H     -3.383145691281    -2.546014257890    -0.936893319080
N     -2.554259663132    -0.698810445398     1.777663004595
C     -2.545447699335    -1.193376241352     3.040438338748
O     -2.314868578190    -2.389600104130     3.340352318168
C     -2.839473976964    -0.210752353230     4.103088707376
H     -2.804891292377    -0.725010880114     5.078971582989
H     -2.072426733477     0.577699483107     4.052261945934
H     -3.843350889029     0.206003800339     3.914187131454
N      2.112951872933     0.521584142881    -2.371523667446
C      2.162327992490    -0.252660050079    -3.500532727948
C      3.383541048758    -0.641604536699    -4.012275457546
C      4.555774633272    -0.264514236710    -3.391091440402
C      4.472287143847     0.505896461242    -2.259917813879
C      3.206231173201     0.884677571416    -1.776324785373
H      1.243600964194    -0.555516259659    -3.989853117335
H      3.417347125551    -1.251473661802    -4.900861053485
H      5.520444582098    -0.572355382118    -3.786328584974
H      5.343245053675     0.829887451015    -1.724412177169
O      3.237857068007     1.615639610510    -0.667316014997
H      2.334642544444     1.936218159631    -0.400743828475

