# STO-3G

title

0 1
C      0.618314526058     2.680924896866    -0.357107392053
C      1.735510425594     3.526144850815    -0.183355486811
C      1.848749408547     4.708804025195    -0.944425721221
C      0.853608543449     5.046562570069    -1.881954205221
C     -0.253680721539     4.194799713969    -2.059969541741
C     -0.377247859310     3.010508738535    -1.302167841939
H      1.710228661733    -1.053538575608     1.733342594318
H      2.514036725800     3.276914247815     0.536834153622
H      2.711045501508     5.357707205157    -0.802407817827
H      0.941489448152     5.958464135203    -2.468168383329
H     -1.023140606143     4.444149870731    -2.787839008568
H     -1.228326492808     2.354107807830    -1.472435445664
C     -1.477150414171     1.529197246381     1.635896411146
H     -2.033327894632     2.179710207610     0.968821342839
H     -1.851112480838     0.518834622532     1.753497969903
C     -0.471579627319     2.010831040175     2.475932365527
H     -0.032791454802     1.343924969461     3.206995899441
C     -0.131663810925     3.436282517768     2.628999816771
O      0.831619248700     3.754695033345     3.372966916118
O     -0.869838320160     4.404921481451     1.926706433709
C     -0.389838169712     5.752557790509     2.024938577302
H     -1.041268931414     6.419097906413     1.420054029814
H     -0.410550466891     6.105461217811     3.080867157548
H      0.647017528486     5.831678954711     1.626628658914
Pd     0.477376625477     0.976365613055     0.678487090216
C     -2.692855033591    -1.368646850318    -1.499601529828
O     -3.417243203462    -1.714428207212    -2.437747262990
O     -2.054437813300    -0.163642114795    -1.404960747480
C     -2.375620148351    -2.267770681269    -0.243165156365
H     -2.040711346652    -3.246227340536    -0.617533945187
C     -3.603636295386    -2.453522416000     0.622335919828
H     -3.359480118278    -3.088206881888     1.498038826025
H     -3.962140951253    -1.467893643086     0.985242415992
H     -4.410889257164    -2.942557701259     0.036986357433
N     -1.385074956547    -1.506822894604     0.503824903039
C     -0.496370403721    -1.815643774083     1.379072999177
O      0.331925174728    -0.888624492097     1.867542439654
C     -0.317013831553    -3.182266633816     1.906362836596
H     -1.003911332758    -3.893794855451     1.426179897101
H      0.732148546278    -3.468559487461     1.708347604857
H     -0.489423797022    -3.148470798716     2.996109637247
N      2.029140551471     0.114573332471    -0.484525462861
C      2.262570348272     0.487939919722    -1.784073234624
C      3.394088373377     0.050249721372    -2.442013173198
C      4.301259395879    -0.767191571180    -1.807011837094
C      4.038607672345    -1.149894427241    -0.520334300188
C      2.864126996773    -0.693966773421     0.119331203091
H      1.557763473855     1.121555471376    -2.307104663679
H      3.566903980356     0.358193240443    -3.459996773127
H      5.196925863743    -1.109548270748    -2.318200784531
H      4.691152949560    -1.796221462231     0.030781461381
O      2.698892349907    -1.155633238653     1.341147765885
H     -1.524877485115    -0.277833637201    -0.513806338794

