# STO-3G

title

0 1
C      0.325545134829     2.985984941408    -0.070441037218
C      1.578684955899     3.551703404497    -0.393150999257
C      1.713267147188     4.951238960296    -0.502567406292
C      0.601242022515     5.790612340124    -0.295700345372
C     -0.647146327690     5.224629827159     0.024533385840
C     -0.789368568832     3.824766747835     0.139051417733
H      0.817396930802    -1.298026342896    -0.992170504552
H      2.448969123916     2.916702119649    -0.552685419418
H      2.684561591475     5.377935194804    -0.745212025332
H      0.707292641625     6.869548809698    -0.379661008433
H     -1.510738334314     5.865343881158     0.190984858588
H     -1.763797502930     3.409965703010     0.388163064340
C     -0.677220499611     0.966815852665     2.088069367139
H     -1.326692502657     1.824339690621     2.226095096818
H     -1.170194604261     0.001018368421     2.037218691537
C      0.703676440442     1.044684284391     2.270925500664
H      1.284162511457     0.132191633763     2.296779317629
C      1.412333200631     2.252679794003     2.730594121163
O      2.670425257029     2.250766802137     2.735856723453
O      0.676632144719     3.404018659992     3.063399025641
C      1.448186818735     4.575311398131     3.361863235380
H      0.762589528830     5.416475977100     3.599510060810
H      2.108510620297     4.401764708115     4.241672599131
H      2.067461347625     4.872874801331     2.485480134772
Pd     0.153645668200     0.996703282411     0.004061856251
C     -0.089268037999    -2.373212419585     3.015868385533
O     -0.136276338355    -2.206625206868     4.243132390796
O      1.013785165041    -2.019722292103     2.289382529954
C     -1.283518212493    -3.051322129438     2.249975013132
H     -2.111359535207    -3.020968354355     2.967496558958
C     -0.977678441585    -4.510091298987     1.973419199052
H     -1.885771352033    -5.014224796880     1.580175990255
H     -0.173632942838    -4.585927678788     1.212850619571
H     -0.659600776372    -5.024752868130     2.904486391002
N     -1.796987653871    -2.509411663754     0.991796390461
C     -1.238217963468    -1.792045620390     0.101314884082
O      0.036331404868    -1.244137416959     0.126492106826
C     -2.025789059201    -1.483387540115    -1.099888560799
H     -3.022771251619    -1.956052747354    -1.019805226358
H     -2.121209593388    -0.390881404375    -1.189413340502
H     -1.485378400821    -1.894824272013    -1.971439947085
N      0.383512392213     0.905686746061    -2.117292915955
C      0.047398494101     1.953276972311    -2.938963468099
C      0.413199541404     1.943750346404    -4.269188761832
C      1.119441915858     0.886255528424    -4.794677961326
C      1.424075516944    -0.161013141049    -3.970362584679
C      1.024163779648    -0.126481096177    -2.616150988130
H     -0.520540435866     2.791197587305    -2.556092513335
H      0.147973875218     2.777843551726    -4.897973386400
H      1.415843728521     0.877106139160    -5.840196517883
H      1.955550251367    -1.025469296945    -4.314857578231
O      1.333836429883    -1.202070592328    -1.933031942883
H      0.767970801934    -1.817345826302     1.311590497995

