# STO-3G

title

0 1
C      1.712134483902     1.495769374155     1.119151538300
C      0.442509804491     1.772393834061     1.701184975209
C      0.155726588792     1.330372807917     3.021379941471
C      1.126007558004     0.633999674930     3.752330712140
C      2.394892364654     0.366806732489     3.179778930197
C      2.684626156645     0.790871315604     1.879584007628
H      1.985937412202     1.914140330648     0.154841388296
H     -0.273725212139     2.403907731612     1.179516989760
H     -0.815095334964     1.548649492183     3.457516457269
H      0.906738694231     0.295917482323     4.761861594209
H      3.142496929487    -0.176736340866     3.750862684896
H      3.655207713844     0.582962894925     1.441830083588
C      0.528011710595     0.990777880967    -2.931466060681
H      0.011690897102     0.506204708040    -3.757123614409
H      1.416714150019     0.483016772582    -2.559744013101
C      0.042921615285     2.118557740930    -2.355567071214
H      0.561445468006     2.574502610777    -1.519622287581
C     -1.220263404792     2.776735765298    -2.728350033712
O     -1.921899812036     2.310508238170    -3.668709288224
O     -1.573707142380     3.969367159959    -2.072861801430
C     -2.834711043674     4.539353355290    -2.449552511418
H     -3.008540442767     5.467817507081    -1.864331439361
H     -2.843142654694     4.803010068890    -3.531542402789
H     -3.666859049084     3.831224457114    -2.233434469885
Pd     0.112618687857    -0.061870959966     0.121634177306
C      0.987456311332    -2.736073253502    -0.423353997794
O      1.392463002949    -1.620579113508     0.240920108360
O      1.640095933974    -3.794232532631    -0.390745461510
C     -0.325826095146    -2.597789144503    -1.288630167450
H     -1.010757067360    -3.402691744473    -0.984430729950
C     -0.006723349376    -2.737749084547    -2.763288350520
H     -0.921901391912    -2.609364649678    -3.373580683995
H      0.732864427044    -1.965563233453    -3.056799425564
H      0.421789067626    -3.741968549034    -2.964537047104
N     -0.877226535150    -1.279426455176    -1.049169056824
C     -1.975615248932    -0.573084413355    -1.220040667689
O     -1.982842388268     0.620776763309    -0.688171436528
C     -3.136195260669    -1.061081336632    -1.978525361261
H     -3.256141057213    -0.400029621678    -2.855396199284
H     -2.969329436936    -2.103260168370    -2.290464906675
H     -4.021974169865    -0.992117394010    -1.323817765038
N      3.455299084343     0.022433090797    -1.729945129184
C      4.108682785364    -1.066843937993    -1.216015912835
C      5.331152423407    -0.900212606379    -0.586391310502
C      5.891889189260     0.355076394138    -0.462609735121
C      5.203016253303     1.426638292480    -0.972637988760
C      3.967212736657     1.191045747708    -1.608793054746
H      3.678608123711    -2.055604560415    -1.318763444696
H      5.837683118796    -1.763489583069    -0.186768081232
H      6.848737907351     0.491341316476     0.034078762862
H      5.568634438683     2.431464547408    -0.905898911551
O      3.356861206211     2.318301551919    -2.060946664666
H      2.534252352388     2.110285463619    -2.555817394625

