# STO-3G

title

0 1
C      1.642268173216     2.349659399086     1.250017026329
C      0.340883056226     2.144340291991     1.725542733133
C      0.065757613183     1.043417156045     2.583219844563
C      1.115997617279     0.162461387096     2.958477123173
C      2.441422465650     0.417713820659     2.517362872500
C      2.696931006872     1.504722225697     1.674538000499
H      1.846954158719     3.139832427345     0.535701647830
H     -0.466783993737     2.809225956492     1.433607840592
H     -0.929765810672     0.916753528086     3.001926432483
H      0.921230160480    -0.661762764169     3.638297716599
H      3.243495859638    -0.248636228525     2.818343575096
H      3.705879174063     1.690193890036     1.317566601865
C      0.170997158589     1.136699411106    -2.408743912111
H      0.511839688471     1.048675752385    -3.438800134581
H      0.488629359658     0.348580103932    -1.734089890440
C     -0.620051729593     2.147165902592    -1.970742822171
H     -0.946178418517     2.150205269799    -0.941292191986
C     -1.113665173032     3.257859994507    -2.801756456312
O     -0.808761610660     3.313922616122    -4.023859445575
O     -1.899521618423     4.254753923928    -2.197679066401
C     -2.330410128587     5.319794510806    -3.056859352973
H     -2.939806820219     6.041637811121    -2.471535189565
H     -1.456265318215     5.865440072164    -3.479643937653
H     -2.959017287906     4.927878776017    -3.888467904908
Pd    -0.085907738267    -0.693503228800     0.867546655661
C      1.034039302328    -3.156017037067    -0.066915464855
O      1.289944800665    -2.165155903882     0.831375173050
O      1.736774108257    -4.178888160188    -0.131688305427
C     -0.165306466323    -2.906281073587    -1.057550927350
H     -0.838560529403    -3.773455394759    -0.989959652140
C      0.336918454181    -2.768133420131    -2.479405314102
H     -0.510592772424    -2.602742405502    -3.172399572158
H      1.036462447075    -1.908870228877    -2.546139308753
H      0.872067783449    -3.691787087211    -2.784377613672
N     -0.811011287840    -1.669255003379    -0.666158208062
C     -1.953141585458    -1.032184632946    -0.820098617561
O     -2.130559780551     0.030944241330    -0.085647261026
C     -2.970616785995    -1.475527478040    -1.782722146336
H     -2.541797110389    -1.393072226822    -2.794608826600
H     -3.240490903703    -2.517163209392    -1.544155664387
H     -3.851959893056    -0.814996295211    -1.690954155297
N      3.120398707703    -0.172038625751    -1.397340983616
C      3.910988786574    -1.242653139622    -1.069649976499
C      5.263606955253    -1.058488283451    -0.838514650808
C      5.825934158840     0.197580098722    -0.931183938789
C      5.009130158681     1.251078481633    -1.251463460862
C      3.637655402022     1.000478420170    -1.470382154804
H      3.483460724844    -2.234522499043    -1.010435733314
H      5.874271721899    -1.909082976918    -0.583848099976
H      6.886926434562     0.347997839711    -0.751182221907
H      5.370572106149     2.255983653349    -1.334670925653
O      2.920364529399     2.117622622033    -1.741849417984
H      1.964829523750     1.910465465114    -1.882546075387

