# STO-3G

title

0 1
C      1.112479410232     1.747624827969     1.347021911041
C     -0.258025829854     2.073485841857     1.542593974259
C     -0.835342992601     1.964316864494     2.835230523931
C     -0.046310849591     1.556121925282     3.919202019674
C      1.323548356286     1.240983792232     3.730500573201
C      1.898039577802     1.329073491424     2.458369497001
H      1.593020985124     1.911329565571     0.387579007634
H     -0.842250688936     2.479854309256     0.720523715600
H     -1.883556960644     2.212524915885     2.977277062458
H     -0.485578596154     1.478684419840     4.910828093002
H      1.926630518332     0.922484719541     4.576647389992
H      2.941924170613     1.081151559185     2.294636330388
C      1.074374471346     1.437341535096    -2.169165093724
H      2.045951687556     1.913182403736    -2.304770422524
H      1.118896710969     0.373123867958    -1.957927908506
C     -0.100977752460     2.106476487056    -2.229664916823
H     -1.026232787439     1.576563674188    -2.048401403208
C     -0.233714009393     3.547598744012    -2.503847534374
O      0.793881019303     4.250943817942    -2.702463786286
O     -1.517967944058     4.119661722018    -2.491410317083
C     -1.577546129347     5.532789863725    -2.731322316573
H     -2.636635319762     5.867659711012    -2.697697203245
H     -1.011545493574     6.090676986514    -1.950970972334
H     -1.165389786009     5.781435676344    -3.735621181243
Pd    -0.100640949261    -0.147148852265     0.400862255604
C      1.251871166164    -2.692982859448     0.477729261424
O      1.441630468478    -1.384588675026     0.856231234357
O      1.994362322073    -3.604537234716     0.856909210087
C      0.036005130395    -2.946331639413    -0.487265876292
H     -0.541889964502    -3.784183972624    -0.071311154928
C      0.521897066261    -3.303910953088    -1.876003871415
H     -0.334845951822    -3.542885498436    -2.535771235186
H      1.075225822124    -2.444315381180    -2.305729629078
H      1.197157026588    -4.184102047900    -1.830196977969
N     -0.738907893538    -1.725884253634    -0.570822820903
C     -1.898730607548    -1.265876384874    -0.980148562518
O     -2.132154052754    -0.000813265855    -0.734095844649
C     -2.899414145281    -2.095924513075    -1.665389806519
H     -3.043409845851    -1.679181225125    -2.676609001514
H     -2.548684268175    -3.138600188302    -1.715619559527
H     -3.839474775315    -2.035902476028    -1.089505476798
N      3.297957595064    -1.056334017519    -2.045904994434
C      3.770645213601    -1.246047300137    -3.316886521256
C      4.760417605899    -0.419835748404    -3.818758311989
C      5.288704773471     0.590940991119    -3.041815846303
C      4.806938228803     0.748829241188    -1.768369351691
C      3.798114306924    -0.125782103951    -1.310320527976
H      3.356505949983    -2.035900645459    -3.932477914160
H      5.120433994446    -0.571983206242    -4.822781695468
H      6.066861846182     1.243529296596    -3.428629832522
H      5.171080483581     1.507776067212    -1.105293003545
O      3.390141538592     0.126497117682    -0.054024456383
H      2.714856571178    -0.537304892445     0.289541513638

