# STO-3G

title

0 1
C      1.682409035370     1.542479726592     1.908041402931
C      0.443834571299     2.216106602751     2.093360179852
C     -0.289153575152     2.028436392126     3.295164486155
C      0.220980118991     1.196858493210     4.301358264551
C      1.461096099095     0.531750664537     4.122940435045
C      2.184227547242     0.697068093396     2.937275886154
H      2.300970568874     1.740034321988     1.040380740448
H      0.095433135917     2.930958109421     1.351421212853
H     -1.236306053638     2.543166859237     3.430568275705
H     -0.336823747693     1.058855232694     5.224415031333
H      1.846221391374    -0.113908769291     4.907673783882
H      3.129423684939     0.186548020771     2.781074278229
C      1.823455167212     2.519575765765    -1.405097694607
H      1.806610591645     3.577670032673    -1.153718022377
H      2.677647888656     1.951332735100    -1.048847230583
C      0.850231588919     1.905685370410    -2.118685859380
H      0.936811251541     0.845765467691    -2.309807629954
C     -0.340730842394     2.577352928120    -2.666253271444
O     -0.487954238426     3.820816781750    -2.511257238673
O     -1.220940715409     1.834413162796    -3.476853968129
C     -2.347433102789     2.557648735122    -3.993032703952
H     -2.968162717989     1.881040528005    -4.618016641946
H     -2.978964928605     2.946418931908    -3.161406646092
H     -2.013485068831     3.407985770438    -4.630453344750
Pd     0.088652631644     0.299166800310     0.529576570808
C      0.790630550791    -2.468574311203     0.086247069235
O      1.278682361743    -1.340724999108     0.698432103813
O      1.301667510035    -3.582728929196     0.247349545023
C     -0.449983277240    -2.240551403657    -0.850626063460
H     -1.218559288957    -2.971089552406    -0.558138063044
C     -0.070861484843    -2.457746334028    -2.300230266002
H     -0.953083979061    -2.318495204812    -2.955417937797
H      0.708143036050    -1.724433648411    -2.591265098515
H      0.326259634539    -3.484747346340    -2.441877813965
N     -0.896730644455    -0.871978492189    -0.691970872517
C     -1.941322328838    -0.107717947370    -0.927389258698
O     -1.879977580912     1.107174335983    -0.448840148787
C     -3.123547769478    -0.568246560163    -1.670238884962
H     -3.194697667513     0.041346538409    -2.586037988435
H     -3.016028683981    -1.634981685195    -1.919982697121
H     -4.008846155375    -0.408554008562    -1.030748492469
N      3.087633158178    -0.626608259541    -2.128386172724
C      3.470274696373    -0.524603650304    -3.439372476807
C      4.698048750170     0.024181011303    -3.763220865271
C      5.550691365416     0.464570868411    -2.772369174670
C      5.146020243386     0.344629317150    -1.468364850311
C      3.884347101127    -0.228675509829    -1.197418507608
H      2.802627385838    -0.864663984189    -4.222266189962
H      4.986773325634     0.104236724039    -4.798167813962
H      6.517897977305     0.894192514312    -3.019141876350
H      5.757771381024     0.656104034549    -0.645687292171
O      3.587675558238    -0.282134176072     0.113360550914
H      2.731225496302    -0.775030079711     0.319999728366

