# STO-3G

title

0 1
C      0.599697275422     1.759193895936     1.192202555460
C     -0.809485859928     1.948207371296     1.225646981522
C     -1.504094547233     1.877099145425     2.462514621391
C     -0.795453142094     1.642243587605     3.648536823499
C      0.611616404421     1.464106336656     3.620148652720
C      1.303505892132     1.516076761287     2.405644763707
H      1.158523390232     1.890796297705     0.272700474620
H     -1.346033075256     2.221990364986     0.319427518799
H     -2.581331096720     2.017802333349     2.479873773878
H     -1.326397926344     1.594467641682     4.596186142946
H      1.151616138506     1.279891344241     4.545138901301
H      2.378848224954     1.373203143742     2.365351820461
C      0.195454039837     0.880330993055    -2.338217123234
H     -0.883650246089     0.757634442115    -2.402366255121
H      0.801423150360    -0.018345772046    -2.260171904265
C      0.806693128275     2.089492101046    -2.337039565259
H      1.885889614230     2.137440513619    -2.250677892544
C      0.123557831175     3.391311665961    -2.406237155281
O     -1.135973079390     3.443970800091    -2.397116288484
O      0.903415604319     4.560890943192    -2.390993546837
C      0.177455513700     5.798217859680    -2.388953998761
H      0.895260230748     6.646483939490    -2.377580036134
H     -0.454230886031     5.888355663061    -3.301743798345
H     -0.467030948737     5.876778341032    -1.483856633525
Pd    -0.321179172491    -0.335137117060     0.326075349190
C      1.471405419410    -2.591222789150     0.519732840773
O      1.428639232760    -1.249210557978     0.809651151109
O      2.372665102815    -3.329432100739     0.931995763417
C      0.310060754560    -3.115003191606    -0.400723349978
H     -0.099895330879    -4.020483087897     0.069312064723
C      0.838534540521    -3.453387701210    -1.779125397498
H      0.023842895852    -3.840672153569    -2.421731450596
H      1.262792744032    -2.541717354401    -2.247129461882
H      1.634347265413    -4.223898832002    -1.703220853177
N     -0.676585305864    -2.063310781855    -0.528514407724
C     -1.914110289516    -1.852896451135    -0.918850590584
O     -2.378536353998    -0.645783386680    -0.727468771682
C     -2.754649187606    -2.894811433800    -1.526169423872
H     -3.007030074751    -2.565822770607    -2.548464938971
H     -2.210507975593    -3.851947704835    -1.543153208484
H     -3.671227381890    -2.985650299755    -0.917403348612
N      3.140435055649    -0.604275418783    -2.099347781155
C      3.618565992893    -0.698395258904    -3.379054252233
C      4.571025196299     0.197162595980    -3.831236817564
C      5.057506753044     1.182150343585    -2.996688123134
C      4.569523599681     1.247270953585    -1.717712143926
C      3.600240465274     0.304724658547    -1.309757783335
H      3.237868750067    -1.468186353237    -4.039929061884
H      4.936315052203     0.117981701516    -4.841781162397
H      5.808407184748     1.886935464451    -3.343716390607
H      4.904550977196     1.979386410592    -1.010466027910
O      3.188186710645     0.468476715714    -0.042049010764
H      2.569625232405    -0.260364174988     0.284449597776

