# STO-3G

title

0 1
C      1.067453990869    -1.086958873413     2.560667651499
C     -0.229091061523    -0.844349419625     3.094353344427
C     -0.972563999800    -1.920299363144     3.657190822600
C     -0.423528066346    -3.207977400039     3.695662402492
C      0.867217723308    -3.447027166290     3.159895237360
C      1.603566379208    -2.400450971133     2.586917634604
H      1.667886085345    -0.266948708910     2.177013133652
H     -0.619112984503     0.168183629135     3.157210644823
H     -1.963907239470    -1.726001771087     4.055327780297
H     -0.989208110579    -4.027178797479     4.131168715366
H      1.284742522645    -4.450216361481     3.185975604825
H      2.584300413396    -2.585546292848     2.159649038569
C      2.679389999847     0.763622972479    -0.343376903428
H      2.020967052411    -0.103168935090    -0.367403304754
H      3.668403111132     0.603576921842    -0.760179418367
C      2.296517705454     1.979022779365     0.115465509513
H      2.965684145325     2.825180363180     0.067187512265
C      0.957520435314     2.277712288765     0.642007055989
O      0.158503261082     1.327247942455     0.859970922254
O      0.631247217309     3.600274374341     0.984908929814
C     -0.727969594756     3.812938503617     1.395121343955
H     -0.882681846118     4.889347152023     1.622133140551
H     -1.436177204327     3.522678359358     0.584264608445
H     -0.964254971672     3.225947466806     2.311795990472
Pd    -0.573377148614    -0.917778472390     0.668101183096
C     -3.075620706585     0.156985733866    -0.193252711479
O     -2.362217215495    -0.032965216005     0.955463671681
O     -4.120910663665     0.824845753026    -0.216369049357
C     -2.533102315049    -0.585309794720    -1.474993595672
H     -2.614105147773     0.112060040469    -2.318576325028
C     -3.355598518360    -1.827683519208    -1.755091477038
H     -3.017240935246    -2.314966027964    -2.690042424959
H     -3.246342825021    -2.541568275359    -0.912289013436
H     -4.426632885238    -1.555864582228    -1.865204397237
N     -1.151705946024    -0.971351941471    -1.216234483875
C     -0.174669836088    -1.704361450232    -1.734241649243
O      0.804230733949    -2.014562905477    -0.941671663839
C     -0.151617778721    -2.107630384040    -3.145887616944
H     -0.260760654212    -3.203636970438    -3.187771873685
H     -0.961486426783    -1.595879040242    -3.689730015097
H      0.824008799471    -1.801838315962    -3.563129220785
N      1.286825134003     0.851677465689    -3.485984108238
C      2.149929872530     1.017096294449    -4.535211316944
C      2.235814148622     2.242445236398    -5.173318078210
C      1.458688377169     3.304390599906    -4.755007305310
C      0.605866000523     3.107796397130    -3.699524634601
C      0.561794046647     1.834594705112    -3.094005728570
H      2.762844268865     0.186202720480    -4.864266213679
H      2.917436582975     2.364774792799    -5.998716090765
H      1.522958246299     4.271001457045    -5.247407657659
H     -0.022400512746     3.884788739708    -3.312343394776
O     -0.294703666842     1.760314816420    -2.051903519888
H     -0.298017698404     0.861266270267    -1.635987886218

