# STO-3G

title

0 1
C     -0.631457040928     2.084232072140    -1.749151514271
C     -1.554292049328     1.127653958552    -2.255361772991
C     -2.944079573952     1.275423373696    -1.985277352442
C     -3.402401716078     2.365987672747    -1.236775523418
C     -2.482567934734     3.325302337911    -0.742239947626
C     -1.110959722514     3.185682813080    -0.990216085332
H      0.418302000232     2.004411862571    -2.013095480282
H     -1.214530705543     0.336537519278    -2.917043174396
H     -3.640052489624     0.538002135174    -2.374902004855
H     -4.464161180819     2.480889364518    -1.035018891936
H     -2.844488465445     4.173127773662    -0.166110414810
H     -0.411506136046     3.925677984729    -0.612645135014
C      2.400920767354     2.862032705860     0.097028637402
H      2.613564918469     3.564411561082    -0.707621335659
H      1.366239123943     2.731352021472     0.398089848622
C      3.358367362080     2.145293888305     0.737111435592
H      3.053461769701     1.454343919326     1.506325453030
C      4.799873724224     2.179821818387     0.441605081140
O      5.228586549833     2.893617021503    -0.505444854163
O      5.675789832194     1.435373791993     1.252643468702
C      7.059006658250     1.473076144566     0.875182471752
H      7.650829837109     0.850971305330     1.580145409010
H      7.198049895765     1.064780812899    -0.151810488291
H      7.452186876042     2.514376960655     0.915517717225
Pd    -0.489829909175     0.025794528251    -0.349199094404
C     -0.271764331071    -2.776933469499    -0.897873931598
O     -0.787218104394    -1.640931976387    -1.443556686590
O     -0.257640039888    -3.859761100340    -1.509727058407
C      0.300432748273    -2.643186034192     0.565566307548
H      1.336401923203    -3.012751093394     0.542157029408
C     -0.504728343711    -3.476180662100     1.539632883400
H     -0.050343523016    -3.429595908599     2.548405328743
H     -1.541660043461    -3.083804116941     1.590751923269
H     -0.529323801098    -4.535390951897     1.207540590421
N      0.213302902093    -1.250544445319     0.967136098814
C      0.812760621673    -0.432126586770     1.804373824923
O      0.592091676051     0.841907662317     1.650791582987
C      1.720029856295    -0.924778783730     2.851373389549
H      2.106651649499    -0.057536602006     3.415244923065
H      1.145051898506    -1.584901139903     3.519685742827
H      2.548982601598    -1.467057359142     2.363847412549
N      3.770302990217    -0.786727876284    -0.545520910407
C      4.454449513011    -1.955554912929    -0.344069633149
C      4.140916626802    -3.078345016760    -1.090974779787
C      3.162466441024    -3.022024151487    -2.064817918753
C      2.512503711388    -1.831090101692    -2.259594290884
C      2.861392138098    -0.730515245294    -1.452515951505
H      5.226714469309    -2.002521968661     0.414843886084
H      4.675189910100    -3.998248308772    -0.919075460456
H      2.908337410635    -3.898401025845    -2.655976369523
H      1.731044771037    -1.717863798727    -2.986856015085
O      2.148479999053     0.391901427627    -1.699494485044
H      2.398306958614     1.109925584113    -1.064151550622

