# STO-3G

title

0 1
C      1.436074394713     2.426800750563    -1.849956999376
C      0.105974498153     2.792804296373    -2.144027192890
C     -0.365915335999     4.076330567959    -1.804238627084
C      0.497672449859     5.000733094178    -1.183109619901
C      1.829763070956     4.639961677449    -0.895307816009
C      2.298852651771     3.353326872719    -1.225883714629
H      1.812590813220     1.448895067763    -2.137075940589
H     -0.566467692570     2.088403352463    -2.626834950249
H     -1.398539626094     4.344748739640    -2.010813701984
H      0.131200732329     5.990454356585    -0.920596490619
H      2.494800551660     5.353502647087    -0.413906235903
H      3.318472507058     3.056841319110    -0.997002504556
C      2.372438621832    -1.290404877591    -2.157061337976
H      2.879241712205    -2.159339697617    -2.568214775438
H      2.998782561591    -0.505501289986    -1.741236031915
C      1.026910603972    -1.195109632802    -2.114293297754
H      0.566956652677    -0.318300983914    -1.672536094930
C      0.081848418458    -2.217381736710    -2.591030479863
O      0.502344531464    -3.255972775285    -3.168268951464
O     -1.295425598784    -1.920181910355    -2.527604671523
C     -2.172916898257    -2.936308929521    -3.034876338024
H     -3.228704123521    -2.602436211466    -2.938338356058
H     -1.970516797660    -3.132486092378    -4.112988436065
H     -2.052682276590    -3.884027022956    -2.461063184689
Pd    -1.810582975995    -0.335711350361    -0.831079487250
C     -2.694147050199     2.141086663247     0.244599508203
O     -2.748742841218     1.419661155430    -0.916148086653
O     -3.337468520730     3.189246130822     0.394450447300
C     -1.770477537342     1.552444965013     1.379941301087
H     -2.404240485908     1.405111267792     2.267030769572
C     -0.645735498392     2.505782718599     1.718435692132
H     -1.059099946489     3.466313429692     2.090232797704
H      0.003760691317     2.065249035655     2.497714576480
H     -0.032679616333     2.705201400706     0.816981730815
N     -1.199534519172     0.300020861405     0.905512086572
C     -0.648745942689    -0.813325550161     1.359609032875
O     -0.546570022794    -1.796026408696     0.515062493649
C     -0.195426341470    -0.943244927895     2.749982460045
H      0.194515477382    -1.966752148623     2.890726987186
H      0.607131914144    -0.207558436146     2.912566950788
H     -1.052834353050    -0.755608042679     3.417655440098
N      4.107943600615     0.660138874395    -0.084646541234
C      5.455463866878     0.425528065653    -0.019473809104
C      6.025872335356     0.003132115539     1.168526259154
C      5.245652577942    -0.184224770540     2.291849794982
C      3.899499987534     0.061938552267     2.196083732233
C      3.379137485114     0.491103950099     0.957398102325
H      6.070791566214     0.569619489870    -0.899912911782
H      7.086804299240    -0.181526749322     1.211131879741
H      5.686960419389    -0.517410033954     3.227448734233
H      3.234762503202    -0.061230818374     3.025147997639
O      2.042901490546     0.702111397989     0.966780267095
H      1.720224448673     1.033667274306     0.098566080061

