# STO-3G

title

0 1
C      2.191220569858    -1.591062030036    -1.561756779232
C      3.105013280359    -2.026636607920    -0.560849114940
C      3.150832855479    -3.374952124719    -0.191758589112
C      2.281993065316    -4.313118345660    -0.805899135325
C      1.373752171413    -3.899544245180    -1.789910020813
C      1.328488324861    -2.535455878685    -2.183042792152
H      2.237532712157    -0.565662233286    -1.909749060753
H      3.760473515220    -1.297208098730    -0.094785614213
H      3.850906808498    -3.705074764324     0.571133886704
H      2.322181260426    -5.358800260494    -0.510740982064
H      0.711189559553    -4.616413414488    -2.266977869542
H      0.690973008153    -2.228756326997    -3.009154112955
C      0.660811690809     1.045140424793    -3.218468315301
H      0.909337072415     0.697316741454    -4.218285937750
H      1.497103931003     1.289743306490    -2.569893039750
C     -0.608375798559     1.181966923488    -2.768857387977
H     -0.764401999152     1.522660835188    -1.754290437151
C     -1.818190546419     0.907367233824    -3.561604942720
O     -1.713718780597     0.521019847842    -4.758058758552
O     -3.072349146000     1.221311982944    -3.003236114749
C     -4.208727697183     0.941310883611    -3.832774439896
H     -5.138699234710     1.222449757857    -3.294326228808
H     -4.163169531857     1.529347178274    -4.777727582571
H     -4.259263168444    -0.144625467228    -4.076677267929
Pd    -0.000146530962    -1.196989511802    -0.550714932178
C      0.105609265280     0.251613409190     1.953764742752
O      0.940270927364    -0.322545990915     1.024525642164
O      0.538494073257     0.847222922884     2.945955617572
C     -1.430073477948     0.095207563919     1.668654345192
H     -1.851054576227     1.110235290255     1.681715711267
C     -2.098668820824    -0.749061232710     2.733886977434
H     -3.195019336533    -0.759586120074     2.581929714319
H     -1.711336346072    -1.787681074413     2.681033913782
H     -1.886899610832    -0.330851419229     3.740583593148
N     -1.592694406766    -0.551599744564     0.384185937654
C     -2.507546698968    -0.835383432130    -0.515195756115
O     -2.083184792843    -1.443947982238    -1.591879936996
C     -3.918286457871    -0.460873373792    -0.349106990781
H     -4.320564730942    -0.994242982254     0.525792574791
H     -3.962213709045     0.632906174905    -0.215353086489
H     -4.465863646351    -0.755523066821    -1.261884804936
N      0.764731405945     2.766245143866    -0.156718466453
C      0.268754448681     4.017238200730    -0.408645073947
C      1.074761641510     4.978606721502    -0.991994394894
C      2.385064600060     4.691070442889    -1.313993059243
C      2.859464565682     3.434495620535    -1.040484646632
C      1.992252041200     2.496775987483    -0.438725330409
H     -0.761527021693     4.246296026835    -0.163141166131
H      0.672432929474     5.957733913635    -1.192168240676
H      3.024971906227     5.441913024091    -1.769670856538
H      3.868523440485     3.142319713289    -1.250425522685
O      2.558244147994     1.295042349435    -0.221039862697
H      1.969606444466     0.679365096728     0.323428484898

