# STO-3G

title

0 1
C     -3.582282086608     0.437566518802     2.175469211558
C     -3.704618945323     0.008085913368     3.511873053473
C     -4.865142261890     0.314866843640     4.249578967824
C     -5.905447828276     1.051789913490     3.648887958782
C     -5.781718622426     1.484694496518     2.313135944717
C     -4.619856818232     1.179996472422     1.576661132428
H     -2.687948343005     0.211018279595     1.604669694062
H     -2.900681010906    -0.560635537515     3.974742802359
H     -4.957983846977    -0.016314760275     5.281590409596
H     -6.802523794171     1.288309193698     4.217012885547
H     -6.583296396612     2.056530818183     1.850645755711
H     -4.501888688922     1.516174899304     0.550097124200
C     -2.664161138566    -1.674620668903    -0.598790234612
H     -3.188361186200    -0.908614650789    -1.167033379203
H     -2.951388744275    -1.775233405080     0.442422211067
C     -1.688898352745    -2.464835071107    -1.114795189552
H     -1.195664993794    -3.180762005946    -0.474009058525
C     -1.210592816217    -2.404653717379    -2.505177204523
O     -1.585145985053    -1.449263459274    -3.241822632010
O     -0.189780046316    -3.281604086035    -2.905221623545
C      0.398102567823    -3.017482872765    -4.187521909511
H      1.187476271623    -3.771940777102    -4.393742107500
H     -0.364236449561    -3.080357629410    -4.996544890212
H      0.875817799150    -2.010408414752    -4.204971664520
Pd    -0.963258889332     0.651428359579    -2.440919414744
C      1.845230791134     1.117146054495    -2.361067629209
O      0.910418857564     0.442441696838    -3.095800524175
O      3.026898910593     1.197606597846    -2.722803807897
C      1.325565215275     1.775132127639    -1.025284907319
H      1.552919192145     2.849502307024    -1.082725865335
C      2.017814839199     1.178884976656     0.180859134173
H      1.662404352575     1.666046251452     1.109000809477
H      1.801420429306     0.092836362388     0.233569510243
H      3.115224207930     1.324628775999     0.099460021176
N     -0.105584242031     1.532586738373    -0.927542486588
C     -1.174863715295     1.931014026201    -0.268109057687
O     -2.327553803740     1.546213161388    -0.739863694934
C     -1.079473746898     2.740119157321     0.952760293525
H     -2.102076713150     3.000489428020     1.279792743810
H     -0.585480978905     2.125141043673     1.722796433373
H     -0.497912209658     3.649932801128     0.728420875068
N     -1.187442530673    -2.620849337443     2.193164444535
C     -1.338900232254    -3.467650881314     3.258313359160
C     -0.806181215973    -3.128959565950     4.490782914484
C     -0.112503654328    -1.946308137023     4.653364583115
C      0.020701490686    -1.118073803520     3.568134023794
C     -0.551348077111    -1.517263347730     2.342426510053
H     -1.877910589728    -4.399553275190     3.133523812482
H     -0.929509815758    -3.801575803795     5.323791407918
H      0.313925566549    -1.677781834161     5.616270107250
H      0.543867510615    -0.184937260589     3.617111623112
O     -0.375775259189    -0.623815346198     1.339196308510
H     -0.825684119354    -0.913321149329     0.509847684224

