# STO-3G

title

0 1
C     -2.645477724684    -1.165657196571     1.621219801869
C     -1.966053830940    -0.884600864934     2.834528439242
C     -0.775693397588    -1.548928260520     3.150648160896
C     -0.251432012971    -2.526103573465     2.259050548927
C     -0.957594679849    -2.844650957246     1.065988935472
C     -2.157745404008    -2.149903254711     0.750915990459
H     -3.525038783649    -0.587120658289     1.366993558885
H     -2.378635036084    -0.130310513831     3.497288725609
H     -0.233999247064    -1.319996040068     4.063379006506
H      0.643034195826    -3.078528025565     2.532209309030
H     -0.618891585210    -3.662669361648     0.433888316805
H     -2.682475401784    -2.376199820624    -0.172779312739
C     -0.885401084007     1.878065368463     0.308031041111
H     -0.854342200802     2.805046897354     0.878975588898
H     -0.953054941533     0.966746445041     0.894364081541
C     -0.835136774004     1.828582270997    -1.045813074701
H     -0.849549383278     0.868622722682    -1.542053082772
C     -0.711319730564     3.001300779359    -1.925137511990
O     -0.886031785409     4.157675840896    -1.455047517344
O     -0.447020017764     2.796222491082    -3.290305090831
C     -0.368603527524     3.979470421681    -4.097955602389
H     -0.158094167869     3.694461998445    -5.151488150259
H     -1.332291630034     4.537848350867    -4.077284548751
H      0.451800214492     4.646055004067    -3.746891268828
Pd     0.743360542883    -1.223416475349     0.356885849165
C      3.121395893849     0.114681283280     1.224529088773
O      2.070233187970    -0.593384847807     1.728506751833
O      4.087988913393     0.453153031055     1.925576874175
C      3.028312346697     0.495090312831    -0.303223878002
H      3.965802865006     0.169521971231    -0.777251630473
C      2.869179256881     1.991290122316    -0.479370969852
H      2.792710840869     2.248809222426    -1.554185640765
H      1.947188809721     2.328913691483     0.035973245188
H      3.742128456428     2.520262624656    -0.042578148849
N      1.862571376966    -0.163200537626    -0.858636752175
C      1.338680979188    -0.492903288606    -2.018772968292
O      0.231201947193    -1.184666547840    -1.982650497148
C      1.933257964758    -0.098929124740    -3.305029176648
H      1.210328771401     0.559693124751    -3.817482252509
H      2.885540571642     0.426548044536    -3.134171689769
H      2.100769059435    -1.016025046427    -3.896128420726
N     -4.349024183609     1.697875731588     2.623986022808
C     -4.531347590291     2.477591472917     3.734005108540
C     -4.242852944311     3.830630207718     3.684155755694
C     -3.789872345574     4.406882409716     2.515657836082
C     -3.634503288723     3.605852603750     1.412731619557
C     -3.944393811844     2.224806569437     1.531547677534
H     -4.884279072110     2.028319509606     4.654895165182
H     -4.381711353685     4.434038763045     4.565966038857
H     -3.571549566904     5.470562627883     2.467789054387
H     -3.317774726041     4.008326116513     0.470578563210
O     -3.818671803042     1.460774778633     0.404017397693
H     -3.039015546781     1.709841865481    -0.139435591842

