# STO-3G

title

0 1
C     -0.069434360011     3.791131446434     0.937112067197
C      0.950990798805     3.358746148650     1.830421383995
C      2.295274383091     3.775057079903     1.624042878223
C      2.613162194354     4.619819259152     0.554835302062
C      1.594881539881     5.067221608098    -0.325952847517
C      0.269690870000     4.659744610371    -0.139314637195
H     -1.109062780266     3.543913986403     1.134157535558
H      0.697353344126     2.776420142707     2.710638353721
H      3.067137101924     3.439126395273     2.311069236556
H      3.640487435029     4.939262179898     0.398785586226
H      1.846595389269     5.729847887890    -1.150021765648
H     -0.506030393025     5.009334618139    -0.813771520587
C     -2.762812464687     2.460591908811    -2.627531112492
H     -3.674833030813     2.408908085835    -3.216632388011
H     -1.868751068966     1.988411180305    -3.026395966973
C     -2.698304122763     3.074287448117    -1.420417541064
H     -1.769229238873     3.051676285453    -0.878729888377
C     -3.819531433005     3.739628732959    -0.735356305896
O     -4.972774473566     3.712851668691    -1.244005029085
O     -3.563366899327     4.428424516266     0.463400315572
C     -4.706431794737     5.001063636055     1.112913568716
H     -4.382603186510     5.512502407010     2.044740333875
H     -5.199793212056     5.753353477292     0.456362932128
H     -5.440998687091     4.209989633326     1.387222192503
Pd     0.351566641544     1.456834371312     0.374833519898
C     -0.092620219958    -0.825972503665     2.046226999152
O      0.168260690640     0.510625155061     2.140119631872
O     -0.309992866136    -1.521897253960     3.053206349447
C     -0.082324619093    -1.432670956083     0.591142768304
H     -1.050434310779    -1.929034618406     0.433583673514
C      1.028547996617    -2.448967043708     0.435330096973
H      0.982510109080    -2.912828214401    -0.569353352031
H      2.009693336508    -1.944843236658     0.557019646756
H      0.927700022779    -3.245701209357     1.202041564018
N      0.146380536833    -0.351627053444    -0.350844044337
C     -0.094302125262    -0.082579339625    -1.615509753190
O      0.059434973644     1.158833346177    -1.989332690032
C     -0.534857274017    -1.116934295913    -2.561926544391
H      0.259284168554    -1.877291220251    -2.633180720182
H     -1.472506882467    -1.554239151967    -2.177956798891
H     -0.703654348081    -0.647244087735    -3.547324325658
N     -2.835107962075     1.210334504112     1.183745378009
C     -2.865488979114     1.288433154161     2.551316815210
C     -3.309458459398     0.210925033195     3.295814819822
C     -3.701113148516    -0.956703809740     2.675226663059
C     -3.659489548790    -1.008362214770     1.304807678333
C     -3.208906603667     0.127588967007     0.600625697007
H     -2.541457181580     2.196536521439     3.046016335657
H     -3.308391016589     0.274709309541     4.371279847685
H     -4.030576665372    -1.812929137318     3.257570858329
H     -3.959633059485    -1.876593654138     0.754973852162
O     -3.187513542102    -0.034598517872    -0.741889679467
H     -2.936817691000     0.802820059062    -1.202798489799

