# STO-3G

title

0 1
C      0.634702748227     1.881082597353     0.097330991833
C      0.156536683204     2.964833304073    -0.667064090952
C     -0.471211227691     4.055423657978    -0.032295237906
C     -0.624200275323     4.064411560749     1.368798273841
C     -0.144754043716     2.983145098265     2.135341356894
C      0.485949359965     1.894836166906     1.500394390481
H      1.122283478101     1.040214115645    -0.388495334642
H      0.265788604161     2.961801332197    -1.748680878985
H     -0.837791414009     4.889738028840    -0.625687041548
H     -1.107618798433     4.906937797712     1.857962434191
H     -0.254485563337     2.990746176994     3.217327760230
H      0.868141920652     1.060949856192     2.084836935291
C      1.916161164721    -0.864174897639    -2.670080463075
H      1.539813079488    -1.827464516394    -3.007155940530
H      2.774417050236    -0.884736005314    -2.002329517246
C      1.326066563541     0.307473748815    -3.007524631378
H      1.727297302148     1.240656327266    -2.635243955568
C      0.115674715363     0.435583833770    -3.835263492357
O     -0.541814659821    -0.597113164682    -4.149927673844
O     -0.358421689746     1.724718196474    -4.133731902044
C     -1.614226469068     1.786695747195    -4.824687058672
H     -1.882896000674     2.849168448894    -5.007102179424
H     -1.552634224210     1.268822702332    -5.808456861248
H     -2.425443452539     1.327285247982    -4.214690997710
Pd    -1.547112762354    -1.901797583346    -2.472806604194
C      0.366376678684    -2.665601555836    -0.554489093213
O     -0.121100758994    -3.122703625847    -1.724422361469
O      1.486402142930    -3.010193890220    -0.115959006188
C     -0.545006477882    -1.666129039902     0.243067618419
H      0.092283038064    -0.892281084604     0.686795384340
C     -1.312868942068    -2.377979617723     1.336148764991
H     -1.931801495912    -1.651948897778     1.900108025625
H     -1.977842821029    -3.143016065758     0.884253963404
H     -0.606888971521    -2.869955668639     2.037624201229
N     -1.495304938357    -1.105730160616    -0.700828509320
C     -2.362824715516    -0.133711750531    -0.878372231579
O     -2.923452708046    -0.079337634777    -2.056022753100
C     -2.706281177186     0.833256728193     0.170198124752
H     -3.778487336220     0.717685841596     0.397615464193
H     -2.089994159913     0.645730411578     1.063293141512
H     -2.502789545395     1.844618102257    -0.221699718350
N      4.055309182790    -0.244998668933    -0.317217631523
C      5.061914022508     0.614806072977    -0.666329419996
C      5.450889338002     1.615044331900     0.206953650827
C      4.838257515642     1.746373380355     1.436361195525
C      3.844397637463     0.860818325186     1.764448819824
C      3.486117060708    -0.134454042673     0.829151556676
H      5.543059091522     0.516223133182    -1.632357738091
H      6.238080975026     2.292562459114    -0.079241548725
H      5.138411675106     2.528902519125     2.127991665122
H      3.332684888331     0.898406615293     2.703587050313
O      2.483469418877    -0.935445247211     1.247992766910
H      2.303861570881    -1.736225702780     0.674680159871

