# STO-3G

title

0 1
C      0.492799865511     3.231997609185     0.857307960641
C      1.830345497240     3.008988242004     0.409102895897
C      2.278458493305     3.559303942727    -0.818745992867
C      1.420220413049     4.350400202828    -1.592918551895
C      0.088816088918     4.581096866390    -1.161145381876
C     -0.369326242284     4.018251240279     0.035143577188
H     -1.805724260070    -0.855964441689    -0.577793105788
H      2.553280369033     2.527837054467     1.064378954508
H      3.303306792483     3.384328423556    -1.137221093319
H      1.779450488032     4.800903054874    -2.515463258845
H     -0.570796431355     5.212284465686    -1.751986716052
H     -1.379198583751     4.220502406350     0.385566877606
C      0.070012741289     2.836560501705     2.285821872238
H      0.717020125766     3.346195247204     3.009424043154
H     -0.959267456350     3.165166364391     2.452214451136
C      0.121963086485     1.301361219291     2.387599499030
H     -0.867229106806     0.880459259290     2.533208635131
C      1.129050793112     0.618990725368     3.223687208391
O      0.804294285068    -0.439919029297     3.818587262624
O      2.445380378910     1.108005594467     3.254295145949
C      3.385146318456     0.321463108657     4.000708741219
H      4.387605927511     0.799022637164     3.953874031327
H      3.083093954626     0.251175822670     5.070578760013
H      3.469643518077    -0.704850908738     3.574265992900
Pd     0.451091271707     0.918588582064     0.394441286585
C     -0.348273210533    -2.058891903783     1.240415026194
O      0.522118351670    -1.169665422629     0.724639808585
O     -0.040176702967    -3.236741866424     1.511139374003
C     -1.795666949754    -1.499419500593     1.431801489081
H     -1.841571074104    -0.946659074714     2.376605692039
C     -2.843509687796    -2.590367708257     1.463817338436
H     -3.846861916625    -2.140029190154     1.611151631735
H     -2.832329500313    -3.140177994722     0.500657208260
H     -2.637299648381    -3.296270225712     2.295145727513
N     -2.138120497391    -0.579152253811     0.338283714083
C     -2.752954075873     0.617354325460     0.522466347116
O     -3.015814052803     1.130331079851     1.638049180519
C     -3.129412863704     1.361584446114    -0.701244116911
H     -4.221015121616     1.517411885291    -0.664102590810
H     -2.608326528585     2.329874960569    -0.682043914405
H     -2.864351562473     0.796213063701    -1.612267294792
N      0.785142698487     0.515850406004    -1.746743243012
C      0.374090249885     1.394754835175    -2.711644706138
C      0.871170460123     1.299301976705    -3.995889207799
C      1.778222865740     0.315204807870    -4.323951729145
C      2.160641772889    -0.566622896428    -3.348458821770
C      1.621951417362    -0.440915203184    -2.049933451426
H     -0.348987268233     2.161857920351    -2.467075097710
H      0.542749902256     2.000007061822    -4.745512544536
H      2.172612262304     0.234385925272    -5.333422672442
H      2.848495379267    -1.366638579482    -3.538122694453
O      2.039618519188    -1.354155871996    -1.197123270730
H      1.501720524832    -1.393106069209    -0.291980531965

