# STO-3G

title

0 1
C      0.960044182164     4.103115656643    -0.212293812419
C      2.365830664823     3.885699692032    -0.108730083929
C      3.176235190723     3.843163874817    -1.252876644388
C      2.605532800672     4.016832531401    -2.533883945974
C      1.221373321779     4.214670462111    -2.666396525110
C      0.399590164311     4.250853131523    -1.517430880642
H     -1.911753452062    -0.360432915240     1.812004756453
H      2.812973025556     3.775780177361     0.877562283221
H      4.245823386109     3.678193417584    -1.150852749685
H      3.242311887170     3.998878221532    -3.415103976895
H      0.778678067495     4.355413492037    -3.648794097947
H     -0.660039483001     4.472960976956    -1.619279774882
C      0.083065672965     4.306444581914     1.041120718379
H      0.738271660610     4.470028854004     1.904222673817
H     -0.537320114724     5.199744617193     0.918719618458
C     -0.793437677102     3.039697800917     1.204459795205
H     -1.844715250644     3.192884022181     0.979768566914
C     -0.613766200204     2.201942613293     2.407078723677
O     -1.578949340089     2.017891985631     3.191919175536
O      0.680551637991     1.738675683650     2.698937122959
C      0.766799419217     0.756582708347     3.740319881241
H      1.829722711187     0.467645291179     3.890737814125
H      0.376087460909     1.157745649881     4.703384309774
H      0.199341478814    -0.160172026002     3.460508838922
Pd     0.103148949460     1.970219542146    -0.309576459092
C     -1.388912798820    -0.626111241777    -0.525137581180
O     -1.015053224285     0.384158061911     0.269729944294
O     -1.252698574843    -0.676146577622    -1.771304351109
C     -2.046863679041    -1.770559893467     0.297292535767
H     -1.425147785152    -2.670901711972     0.202519377946
C     -3.441339719571    -2.095260715293    -0.198014608907
H     -3.845421560127    -2.959524613651     0.368983019158
H     -4.101510022101    -1.220105031805    -0.031827988207
H     -3.418434507097    -2.351396980049    -1.277337172113
N     -2.132558274299    -1.347288365625     1.694846584434
C     -2.230961919554    -2.222621130606     2.720745544466
O     -2.269227058999    -3.472582164686     2.595519023782
C     -2.314042698865    -1.641627129144     4.080281177066
H     -3.253763460393    -2.000729372869     4.531130573795
H     -1.449071439834    -2.012163399307     4.652222116785
H     -2.317198876111    -0.537217245883     4.036299516493
N      1.359641302293     0.788276087016    -1.641605065251
C      1.111180974969     0.616565295274    -2.977016619004
C      1.938095747562    -0.195879025166    -3.730696312337
C      2.993401360852    -0.859882180419    -3.140069436602
C      3.200891199005    -0.684895209055    -1.795440626876
C      2.331996332614     0.158313782134    -1.077739147455
H      0.281596022007     1.135052351917    -3.443411188842
H      1.738068859721    -0.325161566000    -4.781351344388
H      3.638288961391    -1.511281584761    -3.723771261281
H      3.989146309277    -1.182466544113    -1.267381710978
O      2.594716934711     0.239306905486     0.238699003522
H      1.906255081825     0.783818361024     0.699404056830

