# STO-3G

title

0 1
C      0.850100213916     3.838150421337     0.037107988243
C      2.171214715661     3.296999481158    -0.033286531324
C      2.989246047039     3.545160293727    -1.169751827760
C      2.511498173154     4.323125981457    -2.228063640463
C      1.193622291573     4.849588928536    -2.178026912499
C      0.374003905981     4.598713175296    -1.073530473349
H     -2.662118587537    -0.238454139903     0.915791432611
H      2.619664398567     2.830060960273     0.842437122259
H      3.995633702231     3.134387378969    -1.195856500007
H      3.149941540912     4.531060018928    -3.083298218821
H      0.826623283789     5.464424996957    -2.996452536804
H     -0.627215764233     5.021624587578    -1.029838897063
C      0.036550142379     3.717160875649     1.333888333228
H      0.609918615254     4.143048556942     2.166589463256
H     -0.890921046159     4.288865279787     1.240730173443
C     -0.277778571411     2.214850595679     1.520339248660
H     -1.334561666398     1.979673860637     1.427973127934
C      0.333740138163     1.460196866519     2.633837433987
O      1.564855969830     1.588883370498     2.856845957129
O     -0.447270659186     0.530683407700     3.333575999382
C      0.246365104217    -0.304328177549     4.271055439463
H     -0.479247144807    -1.000019129201     4.749125978001
H      1.020548511005    -0.918292244337     3.756949344246
H      0.723422182595     0.305217565582     5.071078881241
Pd     0.515099668392     1.520484220330    -0.256977234336
C     -0.413323482514    -1.187659580569     0.548280192796
O     -0.794017614566    -0.067185338162    -0.012555358199
O      0.788770758097    -1.614613534981     0.585298669136
C     -1.547966235783    -1.967853241675     1.241106111971
H     -1.162380424584    -2.419249862460     2.160201939066
C     -2.126417918963    -3.052971161745     0.360399164060
H     -2.910804690904    -3.600617168210     0.922905664702
H     -2.589587613554    -2.589480603983    -0.534707230018
H     -1.332599283123    -3.764048257967     0.052092166975
N     -2.610444361116    -1.016314890605     1.569165225416
C     -3.116170363394    -0.950471750484     2.830322029069
O     -2.862314089028    -1.769754783253     3.746702890332
C     -4.042914925154     0.168178730752     3.113426082836
H     -4.991386105753    -0.272456290947     3.462438320379
H     -3.582986346835     0.774701442299     3.910384330767
H     -4.214184192733     0.775196926055     2.208040750891
N      1.369830612103     0.798822795856    -2.106774418090
C      1.139815078532     1.495461957248    -3.262230015617
C      1.892141038579     1.234637599493    -4.389611688686
C      2.873489332139     0.268269519073    -4.366342234120
C      3.069359789054    -0.430675726391    -3.204720219862
C      2.270107801429    -0.143356960058    -2.076106936610
H      0.373842471664     2.261353744233    -3.285621702800
H      1.709058312225     1.795638971884    -5.290968328817
H      3.471600407264     0.059896041622    -5.249455422770
H      3.806035696254    -1.204877145637    -3.122642780611
O      2.534394779442    -0.895833717242    -1.028819383518
H      1.801576614298    -1.070472182873    -0.288321703322

