# STO-3G

title

0 1
C      0.276080989738     2.716574997766     0.137481746093
C      1.642866183804     3.141909556969     0.130648870518
C      2.189707770988     3.791994851476    -1.003738938588
C      1.404662549342     3.992614216483    -2.147282437595
C      0.062100493486     3.541716436555    -2.167056967424
C     -0.495862240515     2.914839639826    -1.047221311601
H     -3.750136863096     0.163259638889     1.201311271036
H      2.232576677278     3.095504186893     1.042695868763
H      3.215460440201     4.151670876824    -0.970541230359
H      1.818686849853     4.498955990770    -3.016164187256
H     -0.543241899247     3.681618744928    -3.059319551579
H     -1.521671855461     2.557585910732    -1.074528350324
C     -0.368579172245     2.173696797820     1.427734962280
H     -0.332424634620     2.915445266458     2.233689746534
H     -1.419022314561     1.945404106899     1.229240895442
C      0.384117509459     0.866231639027     1.734942683675
H     -0.248552835857     0.007015637969     1.876157566568
C      1.500127579207     0.808509139090     2.699668706933
O      2.227688435370    -0.216685244596     2.669387084010
O      1.943509055253     1.988666967395     3.320485768198
C      3.067260609051     1.847944063608     4.201052690598
H      3.310137093260     2.835879435316     4.648807311841
H      2.834313957374     1.140494386909     5.029473915562
H      3.964319197338     1.487900138204     3.647930182275
Pd     1.144230415328     0.538360797797    -0.148336205763
C     -1.714338625743    -0.727808270428    -0.134555054148
O     -0.452412305491    -1.060358728699    -0.421871000581
O     -2.428367826436     0.056996932358    -0.815188126988
C     -2.292041651462    -1.334040068810     1.171910721036
H     -1.483162507844    -1.640122335392     1.837145497797
C     -3.182418963497    -2.527048545908     0.901256059828
H     -3.568616492897    -2.924319606796     1.862684624005
H     -4.043236016779    -2.210394898660     0.275973367391
H     -2.612113769067    -3.322036690113     0.378216249637
N     -3.100023974646    -0.301841539693     1.827212557694
C     -2.778425604340     0.218158334554     3.041257302728
O     -1.781700814088    -0.120099434488     3.726960431111
C     -3.672872209844     1.272667508594     3.567483385198
H     -4.052256236870     0.925271347263     4.542907683292
H     -3.071043422374     2.186880199912     3.694435137578
H     -4.515967456640     1.455543536469     2.877810195600
N      1.974454105996     0.235293257296    -2.143221363919
C      3.118270227793     0.902142914219    -2.491864716380
C      3.632105966970     0.783107059945    -3.767131005417
C      3.001806839811    -0.005398052129    -4.704432420857
C      1.864015810939    -0.670054816290    -4.333078569574
C      1.371183352785    -0.524278795011    -3.018304759906
H      3.629089156669     1.515220223116    -1.759956195028
H      4.532722292704     1.313515434134    -4.029093204248
H      3.399231118751    -0.100843227917    -5.711449265253
H      1.323668012234    -1.300451458272    -5.011043746114
O      0.274910837801    -1.204297976222    -2.774367519902
H     -0.097424174905    -1.139375690861    -1.783924521189

