# STO-3G

title

0 1
C      0.834351698510     3.472607516733     0.528736217121
C      2.042700329578     3.687056851335    -0.200568787552
C      2.013496166996     3.999162388795    -1.562441603211
C      0.776398990153     4.103889171604    -2.249321529996
C     -0.422238337072     3.875939931899    -1.564379008374
C     -0.401788520860     3.552362609930    -0.182651448846
H     -2.432478636345    -0.228134028856     1.954328442074
H      2.993932764266     3.613289072549     0.322486794179
H      2.945638062065     4.165213029378    -2.097523022109
H      0.765184003415     4.364668271234    -3.304954197070
H     -1.376329340343     3.952474390221    -2.078480941083
H     -1.342341156817     3.501931111933     0.357383049023
C      0.842691298287     3.299875082310     2.057345178487
H      1.875644071738     3.136657103431     2.381991214100
H      0.477950108227     4.210704325140     2.550594689612
C     -0.037776584791     2.061041127075     2.345039978001
H     -1.098361532551     2.306258857605     2.377926549586
C      0.312150726797     1.128674522144     3.437221539855
O     -0.615703608521     0.581050170738     4.087081140251
O      1.662227706338     0.928885366669     3.768534135807
C      1.923740225378    -0.155545664720     4.670688465580
H      3.018174890233    -0.235096707232     4.845354254798
H      1.424644754369     0.011957458141     5.651977504364
H      1.574271624696    -1.121821054936     4.237086790739
Pd     0.304640434525     1.221259458909     0.488309781204
C     -0.068775293538    -1.769155813899     1.457492151816
O      0.680411588769    -0.672355186692     1.301245558154
O      0.349863383858    -2.812496592800     2.006856299082
C     -1.525473132291    -1.754062128271     0.885383053887
H     -2.075975453663    -2.472724965477     1.507327789095
C     -1.553902258148    -2.270068909175    -0.540089927946
H     -2.598499380554    -2.292700741824    -0.913749869960
H     -0.945325146629    -1.614542613310    -1.195546499439
H     -1.140177827916    -3.299275590658    -0.580710170452
N     -2.226835653211    -0.462345203307     0.986984092489
C     -2.654702940855     0.426979511583     0.042446294786
O     -2.334546476098     0.460396851190    -1.170012728437
C     -3.634250306161     1.424933605084     0.535942457671
H     -3.189534898125     1.995495849774     1.363546329850
H     -3.912065114097     2.093259749054    -0.298214572790
H     -4.524046460492     0.874259418350     0.889587353685
N      1.017358051876     0.425754697629    -1.412574620068
C      0.461776229811     0.755599440967    -2.620216415129
C      1.092944400034     0.386991297450    -3.792862140449
C      2.274828878403    -0.320889034277    -3.760169844872
C      2.795526893667    -0.660247511098    -2.539029889419
C      2.111503094061    -0.275720624609    -1.367156086564
H     -0.460678004661     1.319077896627    -2.659988502514
H      0.650663905026     0.657261243201    -4.737230697094
H      2.774828846995    -0.612820337298    -4.679755226001
H      3.698646611141    -1.228415558565    -2.439688882365
O      2.673808982484    -0.695673441587    -0.239788325167
H      2.021485253718    -0.706547171248     0.555896270685

