# STO-3G

title

0 1
C      0.924076670275     3.486989369481     0.284736895790
C      2.202377197598     3.626937907440    -0.333283834021
C      2.314829693157     3.895495826349    -1.700573535386
C      1.152738886491     4.033546293055    -2.502027793796
C     -0.113212918894     3.880316242913    -1.924500364216
C     -0.238074841169     3.595120348095    -0.539872693759
H     -2.631770096257    -0.923060113787     2.290993252311
H      3.096672672198     3.528886679436     0.278564865214
H      3.299329739672     4.002350953745    -2.150408366227
H      1.250810276042     4.263951049551    -3.560440346794
H     -1.011775503160     3.990179379019    -2.526204783185
H     -1.229709992519     3.575665545738    -0.097406049798
C      0.789584126420     3.362387730604     1.811501492401
H      1.776814202551     3.137991158734     2.229843335101
H      0.451093239730     4.311505167727     2.249684995447
C     -0.196227990991     2.197342873789     2.053511839131
H     -1.233911967106     2.508704633233     1.935998586043
C     -0.039675915667     1.323266821788     3.235106802335
O     -1.072986413588     0.948799785936     3.848043634252
O      1.245206324842     1.080102049442     3.746783678525
C      1.325119755632     0.073366901039     4.765523989831
H      2.384068906617    -0.051619180812     5.078060060470
H      0.728626064194     0.362025309095     5.660449867752
H      0.964738750000    -0.908246723274     4.378723127201
Pd     0.273337467173     1.253478523650     0.279573787076
C      0.054877680855    -1.759020671339     1.433331505760
O      0.691839478414    -0.601330219462     1.230033217473
O      0.581667949211    -2.744031450657     2.000545274219
C     -1.415884675318    -1.888368166774     0.917786294121
H     -1.798398439853    -2.802343565898     1.388425700474
C     -1.484658363947    -2.081814724600    -0.584162739876
H     -2.543672427115    -2.177301435857    -0.901531123586
H     -1.027153207606    -1.219796571067    -1.105368952162
H     -0.938650806083    -3.003779378168    -0.872793430134
N     -2.312804836441    -0.797923256053     1.335444041801
C     -2.711489135229     0.339724928079     0.711521744451
O     -2.270668011313     0.795462329333    -0.377380828774
C     -3.772862173716     1.095370382231     1.415423851721
H     -3.409975888073     1.351469415913     2.426431098945
H     -4.011065495376     2.005207745164     0.838333871590
H     -4.661466755707     0.443889769018     1.486187585016
N      1.072887319099     0.400024833777    -1.542929345540
C      0.560443840895     0.701151662376    -2.775293779534
C      1.243545811396     0.325243019526    -3.915482550143
C      2.440003669077    -0.354071198980    -3.822962615007
C      2.919733997548    -0.660670928877    -2.576057008875
C      2.182549307921    -0.270326371906    -1.438934493080
H     -0.381425697893     1.230685277699    -2.853860307576
H      0.835095315970     0.569805379693    -4.881936104233
H      2.983393456861    -0.649141209238    -4.716608733205
H      3.833100209484    -1.202036896197    -2.430422612933
O      2.710329854700    -0.643012003524    -0.281034078400
H      2.035301455255    -0.624356057290     0.502140386150

