# STO-3G

title

0 1
C      0.388658620584     3.448347746908     0.700236066794
C      1.744819636604     3.300855065417     0.276690847848
C      2.166874746796     3.815394830305    -0.976296438077
C      1.262248316998     4.495038511697    -1.801383726571
C     -0.088318522481     4.648455997845    -1.394483836603
C     -0.518677265907     4.121501993562    -0.171965323932
H     -1.488585927172    -0.865129282580    -0.512635655392
H      2.494051779131     2.918279232381     0.967770528497
H      3.206945268743     3.702473461101    -1.272891461759
H      1.599050042374     4.920468776531    -2.743996668139
H     -0.785065430371     5.195269964682    -2.025356176831
H     -1.544442639992     4.269785780306     0.158424236635
C     -0.018326386900     3.097628930143     2.144456182989
H      0.591576987513     3.682696430675     2.842971313747
H     -1.067396824046     3.365867681907     2.292529505430
C      0.139914748645     1.576399636498     2.321958677632
H     -0.816546297012     1.089121270171     2.473218387858
C      1.186229925743     1.003029481311     3.189841921499
O      2.350117432290     1.478253423203     3.145401754117
O      0.897802953545    -0.181373638637     3.884220804804
C      2.022724390795    -0.874249930682     4.442058533668
H      1.669799930745    -1.798226746766     4.949821554777
H      2.733739338680    -1.179897189283     3.640376809859
H      2.551211572175    -0.241354417173     5.190326588752
Pd     0.558571647404     1.111046890275     0.363037800738
C     -0.031795948558    -1.843644027298     1.452172059900
O      0.757497009486    -0.948654550727     0.828651414573
O      0.390821818945    -2.916660361875     1.927127315420
C     -1.539087326603    -1.434741567968     1.517462292449
H     -1.707913929284    -0.859595568096     2.435151449747
C     -2.464174650648    -2.632030719462     1.528774726517
H     -3.517413605416    -2.288661709156     1.593612706958
H     -2.331009122857    -3.209264175402     0.591121460721
H     -2.241475225653    -3.282913297666     2.399756713060
N     -1.905481145847    -0.595712268042     0.370837540860
C     -2.627226593155     0.549464662619     0.477962408120
O     -2.985283555547     1.076364476579     1.560181273051
C     -3.008865955928     1.210693481153    -0.790578086046
H     -4.110280659760     1.272442540614    -0.806755851205
H     -2.573855504823     2.220535859110    -0.790266415822
H     -2.654783327906     0.635596063712    -1.664541393177
N      0.971166082628     0.593488853480    -1.741714738189
C      0.534132029367     1.388543217698    -2.766114144094
C      1.065250616349     1.245450727467    -4.032161901621
C      2.034207321934     0.298010216088    -4.281665393215
C      2.443113660855    -0.500512615188    -3.246965958467
C      1.869644738100    -0.327641667115    -1.968922251348
H     -0.237497053679     2.124912114352    -2.583165304813
H      0.715536507185     1.880407857191    -4.829234590671
H      2.456301404957     0.180548859749    -5.276225962843
H      3.180957987050    -1.267743918650    -3.373562329900
O      2.318230605144    -1.163709144672    -1.054735589448
H      1.773470207729    -1.168421407882    -0.155349433476

