# STO-3G

title

0 1
C      0.473406899418     3.908620440635    -0.296622983733
C      1.887571019040     3.736591693667    -0.206801607622
C      2.731019383851     4.117778185688    -1.283461253051
C      2.184525043042     4.676591431328    -2.444737680040
C      0.777658701854     4.816664288502    -2.562650141895
C     -0.061827534345     4.423993972593    -1.514693926791
H     -3.327492427169    -0.441643941282     1.466644953023
H      2.346795651478     3.454463262541     0.738653458448
H      3.807337470506     4.002240887857    -1.178366914882
H      2.834549268785     5.006372974041    -3.251811764999
H      0.349927400895     5.245075498891    -3.465978052855
H     -1.138689468245     4.548038562378    -1.603588333952
C     -0.419584649019     3.714790959139     0.941611535754
H     -0.062251380124     4.359585082060     1.754181672413
H     -1.441496088421     4.017870613746     0.697195609032
C     -0.394695234135     2.214381820370     1.299034471706
H     -1.367529711435     1.741991985629     1.205994588496
C      0.315168471185     1.739714489338     2.503847125339
O      1.529496706158     2.034537573267     2.648711840406
O     -0.342258590180     0.873321442436     3.388022445860
C      0.477307591675     0.258265821691     4.392417966961
H     -0.148888716675    -0.412630088962     5.020439208426
H      1.270982356694    -0.367248231535     3.924233196677
H      0.942941280558     1.023546691989     5.053250512038
Pd     0.662193230402     1.538693835672    -0.328805969003
C     -1.302018336623    -0.629006386292    -0.063374271606
O     -0.019073195773    -0.366276644466     0.200799008217
O     -2.043226894665     0.114227247289    -0.757496790444
C     -1.880686352642    -1.808287307005     0.751030557663
H     -1.085398218578    -2.373272373439     1.241314217275
C     -2.758597745571    -2.730671734523    -0.063796735565
H     -3.152660411002    -3.534413996430     0.591837999378
H     -3.614007069299    -2.156890159161    -0.477110557192
H     -2.174981308578    -3.183246678992    -0.890981912013
N     -2.701078706020    -1.172917505223     1.787320713613
C     -2.457643411289    -1.368608266646     3.113532841664
O     -1.612787468839    -2.166208016413     3.581734449063
C     -3.303903684120    -0.573629998205     4.028577507005
H     -4.356868612493    -0.822179802760     3.815471969173
H     -3.041730312129    -0.838719876970     5.066772424603
H     -3.101917601171     0.494162015141     3.838147596557
N      1.805939131466     0.626761336112    -1.971034273001
C      2.058813353532     1.290452997201    -3.141338365467
C      2.977937607570     0.786344079679    -4.040133386077
C      3.639993184001    -0.393020463610    -3.776899708161
C      3.344704265829    -1.056748683210    -2.615620254159
C      2.390672155511    -0.511315676402    -1.730950358038
H      1.529351852858     2.205226303417    -3.366947447477
H      3.172962313280     1.321172344030    -4.955101332535
H      4.365353026451    -0.794470606611    -4.479696116364
H      3.804695304247    -1.990333731470    -2.358808897553
O      2.151404720787    -1.263024954580    -0.664504647071
H      1.298357832266    -1.005493376124    -0.157906726674

