# STO-3G

title

0 1
C      0.588650750783     3.417297676543     0.911941496337
C      1.960315890873     3.147464465879     0.619558905104
C      2.553593653126     3.645211586539    -0.564412828308
C      1.805993761412     4.435968414458    -1.449338244170
C      0.443994056461     4.712656274345    -1.174188078998
C     -0.159622267212     4.194311510596    -0.021173301376
H     -2.428064505051    -1.931616565863    -0.539732222498
H      2.582898691052     2.643058051708     1.355376269180
H      3.599244948563     3.429104529620    -0.769706985029
H      2.275606288148     4.844651363474    -2.341447346719
H     -0.132392821403     5.333194836334    -1.856318612936
H     -1.204528861505     4.405363568059     0.193267083746
C      0.018197301947     3.086185795972     2.307678002143
H      0.658966896050     3.538187087017     3.074058651627
H     -0.978978035395     3.526616293586     2.392808774156
C     -0.087433434714     1.555200998511     2.426493348866
H     -1.118773240986     1.219534410623     2.468191372118
C      0.774774695057     0.789732721451     3.347587220199
O      0.310886290672    -0.250858209869     3.881329379031
O      2.111369239750     1.180183214727     3.529934034050
C      2.914747138332     0.299223973824     4.328171986482
H      3.947768773461     0.703032031723     4.399109906523
H      2.503899629405     0.211534014686     5.359717902798
H      2.970045819430    -0.713624336354     3.866060121702
Pd     0.354743107501     1.137141954536     0.469957701001
C     -0.297135820320    -1.948036838069     1.234341791131
O      0.525995227991    -0.971743912061     0.818241100536
O      0.056757056972    -3.140681566704     1.366083673274
C     -1.775752608109    -1.474456695982     1.424542302551
H     -1.791975760684    -0.561125634797     2.020818117996
C     -2.662238152812    -2.511198602903     2.077152116559
H     -3.695032538954    -2.116321431343     2.166229011878
H     -2.678769472512    -3.429318338790     1.454274159973
H     -2.274330289174    -2.759698410114     3.086655487023
N     -2.340825546117    -1.154161107531     0.104175158566
C     -2.547226059490     0.102787018360    -0.349949839601
O     -2.316171989914     1.162250545870     0.292153374368
C     -3.065606533218     0.200221971821    -1.729982719948
H     -4.023548196133    -0.345915246401    -1.769743233931
H     -3.215509870979     1.264200412502    -1.980528778323
H     -2.325532761380    -0.260141278690    -2.408513104239
N      0.782852532926     0.764891178450    -1.643474700520
C      0.338764322572     1.630441905417    -2.605485613783
C      0.805309996975     1.525668235997    -3.900643480433
C      1.721395816332     0.552640465867    -4.237618517412
C      2.137435629181    -0.313742003819    -3.261651387325
C      1.623859941344    -0.182294867469    -1.953468180191
H     -0.393394200198     2.386254837711    -2.352958459417
H      0.450526103637     2.214174142490    -4.649449359861
H      2.095357193702     0.467123286174    -5.254404068815
H      2.832263907979    -1.106116375073    -3.457306953474
O      2.065043501407    -1.084910982844    -1.099194963094
H      1.520782105117    -1.135670662191    -0.195540262500

