# STO-3G

title

0 1
C      0.318181432068     3.423931613224     0.566711752587
C      1.650002623598     3.347366062285     0.058131829985
C      1.956477032526     3.843341254434    -1.235118030703
C      0.957034811696     4.431925248511    -2.020059962262
C     -0.374683371508     4.499907653945    -1.534945126424
C     -0.689803437690     3.990009636045    -0.270925510250
H     -1.651910979385    -0.805824152476    -0.330272220024
H      2.465044333741     3.036628333825     0.709457103078
H      2.981555810468     3.790760321029    -1.594225202832
H      1.204052211988     4.848680079298    -2.993805803888
H     -1.148067442809     4.968280444102    -2.139046661022
H     -1.703163664548     4.069516357714     0.116465710614
C      0.028841481069     3.118676235718     2.049393214530
H      0.655966520423     3.760236242900     2.679346384145
H     -1.019918686385     3.341837577905     2.259790854649
C      0.270248454206     1.615182296289     2.272951207829
H     -0.644802642805     1.097267675101     2.531714489054
C      1.412220141688     1.120015911995     3.065125423148
O      2.548861253536     1.628571473126     2.886905966217
O      1.236607180436    -0.046496575924     3.824304143179
C      2.433182692394    -0.665538074907     4.315685092310
H      2.164610038785    -1.581541057851     4.885780868349
H      3.092707165752    -0.972888859866     3.471908243404
H      2.988368648411     0.020854171968     4.994215073858
Pd     0.569268106294     1.090409793248     0.308572639196
C     -0.039026844159    -1.804578991030     1.549456955480
O      0.722257538181    -0.951391779006     0.840681035362
O      0.395542339814    -2.868737115306     2.033787355490
C     -1.532572267859    -1.369347946126     1.706679397259
H     -1.631586634056    -0.791858562367     2.633452266114
C     -2.473046096647    -2.552506439479     1.782204345370
H     -3.514623839345    -2.193085172079     1.914198868316
H     -2.409884420103    -3.134066253728     0.839936050731
H     -2.204603291487    -3.204807161953     2.639173324989
N     -1.967076185840    -0.523372773666     0.591059464065
C     -2.637988665030     0.645842835818     0.746911712156
O     -2.902781767759     1.193368838522     1.844785045119
C     -3.067534878654     1.292621136257    -0.510402616606
H     -3.723481401288     0.583243163555    -1.043923201735
H     -3.622645339403     2.213905130773    -0.262062924176
H     -2.173074581749     1.522714259548    -1.111708759066
N      0.944046718069     0.482465100514    -1.788592455197
C      0.514417425724     1.230835531912    -2.851119340387
C      1.055320153242     1.034059503816    -4.105776089678
C      2.025552395262     0.077240548256    -4.307642214057
C      2.425544847683    -0.676608485814    -3.237085108149
C      1.842945079705    -0.449393796353    -1.971598096278
H     -0.258352189814     1.973733370416    -2.708547226737
H      0.711178058412     1.633956840204    -4.931943761619
H      2.455053024082    -0.082513465653    -5.293122661404
H      3.163561388130    -1.449031013037    -3.325754023741
O      2.285817835199    -1.248098655774    -1.022014028254
H      1.733902639362    -1.220615274123    -0.126951659773

