# STO-3G

title

0 1
C      0.260804305095     3.483352061739     0.423045365152
C      1.648376580148     3.376324424780     0.100938523781
C      2.107033975934     3.652671696477    -1.210556640349
C      1.202127657766     4.047904462801    -2.204600463337
C     -0.179298088785     4.145767895429    -1.904912013651
C     -0.641432094059     3.856503488880    -0.616489729490
H     -2.538521252339    -0.223558735242     1.906174701883
H      2.375204330354     3.194423404150     0.890790266764
H      3.169049301153     3.574447750678    -1.429848923130
H      1.560915304571     4.286017333097    -3.203308018332
H     -0.882269381622     4.449774783854    -2.676084008073
H     -1.700201552671     3.951081497566    -0.389036146434
C     -0.193653241384     3.390424715935     1.893878987880
H      0.413956481308     4.073430763170     2.499598962890
H     -1.234512146255     3.717030144104     1.971473753920
C     -0.048695900311     1.914497131239     2.329712696932
H     -0.995784392692     1.423575407177     2.536634169143
C      0.969026924830     1.505912359708     3.319164381368
O      2.120874089295     2.008686241581     3.258489928148
O      0.646962861434     0.506067656118     4.249145728381
C      1.744826061111    -0.027247673793     5.002042172669
H      1.369603345713    -0.815763353983     5.689817319013
H      2.495616071244    -0.495204448924     4.324646031716
H      2.234096043946     0.765894734121     5.611486124279
Pd     0.511796556332     1.158542466455     0.505135569126
C     -0.118307292426    -1.777369770787     1.540682640029
O      0.706839881469    -0.740690809122     1.356245003952
O      0.206151441486    -2.807325835775     2.173334404427
C     -1.541993095207    -1.729248866106     0.887073303089
H     -2.135919646504    -2.441932799747     1.474295022278
C     -1.505643357719    -2.238639241014    -0.540700028216
H     -2.528632014539    -2.232973875996    -0.970630352148
H     -0.846863832870    -1.597464272714    -1.160311621707
H     -1.115921976367    -3.277659883031    -0.564314862030
N     -2.234167019474    -0.429339150118     0.959991154948
C     -2.537557125198     0.496651567296     0.002994428356
O     -2.124217696211     0.531227734327    -1.180025240129
C     -3.485009349466     1.546756246706     0.447861708833
H     -4.417306310128     1.044698990455     0.759505595138
H     -3.038324107089     2.093502741128     1.290758264618
H     -3.688928520391     2.229512890448    -0.396854782185
N      1.167469477260     0.323794555219    -1.390712392908
C      0.652478736089     0.742857527110    -2.588245398531
C      1.213064125913     0.298988369285    -3.770788259035
C      2.279582735202    -0.574013067120    -3.756646603349
C      2.756645360526    -0.998192929126    -2.543777827712
C      2.147744370843    -0.528287090517    -1.361851972768
H     -0.180357216524     1.433167498808    -2.610011337845
H      0.805051147812     0.639750023726    -4.707709080713
H      2.722882058766    -0.926641158728    -4.684010699039
H      3.568013724348    -1.693088775948    -2.458876136239
O      2.648453130706    -1.040511568650    -0.243371281620
H      2.022476079492    -0.942526947300     0.564233437697

