# STO-3G

title

0 1
C      0.736164389332     3.272408895821     0.479507138467
C      2.122794150662     3.400594475238     0.165910825317
C      2.536759245494     3.896293458552    -1.095811821424
C      1.584976368138     4.233546911730    -2.067869298719
C      0.205232056599     4.075078393234    -1.786616649285
C     -0.210902092357     3.607086598024    -0.535835889345
H     -2.615163986241    -1.237766890695    -0.230666828710
H      2.871568257478     3.247084593576     0.939375335636
H      3.597628638056     4.032232534648    -1.292451063356
H      1.899815773134     4.629126273675    -3.030831856040
H     -0.534289435776     4.334858899529    -2.540506873154
H     -1.269275275900     3.519990361398    -0.305012409971
C      0.269465885703     2.974893264956     1.917880685668
H      0.681052969353     3.721599506391     2.606681878948
H     -0.821179872525     3.028461757853     1.950420093948
C      0.671956090431     1.522412086861     2.245841929920
H     -0.190885919071     0.960443161287     2.577469456594
C      1.862061261145     1.219510838906     3.060709471175
O      2.995013158826     1.312533508843     2.520011533255
O      1.698299568304     0.678378756562     4.344646176588
C      2.890003360002     0.197990794841     4.981025901536
H      2.631756644320    -0.207596828286     5.982989379475
H      3.348464595214    -0.624699958846     4.386087098041
H      3.628979198104     1.019788896773     5.115616511776
Pd     1.074488534770     0.966575518506     0.310381907105
C     -0.356788005611    -1.423437895518     1.771611792978
O      0.165596185375    -0.922303931260     0.635634900565
O      0.303910287109    -1.769068461853     2.766990399050
C     -1.924692755699    -1.507870414242     1.776577400902
H     -2.239866600100    -1.049437518212     2.720338896116
C     -2.419644105551    -2.936961873295     1.741241018621
H     -3.527458854784    -2.946428460200     1.805961630267
H     -2.112694606516    -3.412248268953     0.787182279077
H     -2.000365176154    -3.510148268374     2.594143514582
N     -2.546587037553    -0.781749318075     0.672877680685
C     -2.736704561196     0.561886013797     0.719176608319
O     -2.432512004757     1.300302248566     1.688875029090
C     -3.357032872192     1.158173462915    -0.482335727509
H     -3.497822734439     2.239345998639    -0.314830102918
H     -2.685646661668     0.974972868055    -1.338317660258
H     -4.330575697920     0.663347295077    -0.643392924498
N      1.220776554202     0.445762978765    -1.847501126391
C      2.193724803797     0.963900022499    -2.659298424849
C      2.101097457589     0.823873147051    -4.030439523128
C      1.036833776264     0.154904234573    -4.595272564115
C      0.090734192349    -0.379763639469    -3.761445742369
C      0.233817062137    -0.224097775775    -2.366368477908
H      3.041639636390     1.477637611935    -2.225343014474
H      2.870333594490     1.240999578809    -4.659093203585
H      0.957854310946     0.041846095138    -5.673244344026
H     -0.750255974519    -0.933096300793    -4.128682060361
O     -0.711330666707    -0.805460054362    -1.642464503455
H     -0.439675653120    -0.882820065476    -0.608254522171

