# STO-3G

title

0 1
C      0.767363708941     3.457204184266     0.200283394888
C      2.014834924026     3.715071158194    -0.442925026201
C      2.072793962430     4.016395156850    -1.807544843175
C      0.885393883082     4.066215802025    -2.580009241343
C     -0.349899413865     3.784081099755    -1.980809086887
C     -0.416031081959     3.472493371555    -0.599828663694
H     -1.632045414862     0.449366031213     1.068868370054
H      2.927337092874     3.693833703414     0.149516820682
H      3.032938268922     4.224300585915    -2.273708991503
H      0.936170428554     4.330245458227    -3.633632897286
H     -1.266901766474     3.828023007704    -2.562801298656
H     -1.390094645266     3.367927762137    -0.129856417637
C      0.673592908846     3.338942598699     1.733697985802
H      1.684128291589     3.218569153837     2.137632099085
H      0.251438944271     4.257847427900     2.161107373808
C     -0.195245121231     2.094706884286     2.018974821452
H     -1.257814957263     2.327516310269     1.957213375143
C      0.088495464822     1.240412275740     3.191106611106
O     -0.871265346763     0.839383441027     3.899101595366
O      1.423491706827     1.000981400789     3.554363091325
C      1.619046355031     0.008351797707     4.571323667424
H      2.706743474596    -0.115160965799     4.762728274921
H      1.129181215167     0.311197425659     5.524574930686
H      1.213974370905    -0.977130170708     4.242698220944
Pd     0.404076355658     1.170610250709     0.258262858913
C     -0.298957033621    -1.817278690166     1.093585551672
O      0.499815071407    -0.716715308516     1.142050335719
O      0.118618980250    -2.939080716459     1.434738757475
C     -1.738132110859    -1.613103353919     0.563588714257
H     -2.365136145107    -2.406398025049     0.981199773148
C     -1.791947572851    -1.701402508802    -0.948460913627
H     -2.846768833203    -1.617811186238    -1.284463012210
H     -1.206478027354    -0.873077146969    -1.393194143713
H     -1.382160271710    -2.674765708314    -1.290254850633
N     -2.288021570397    -0.318952890225     0.970559174984
C     -3.586271209504    -0.198308550570     1.355775380499
O     -4.446969453027    -1.103402181727     1.266344660766
C     -3.966461328161     1.121806307507     1.902706733838
H     -3.371865259114     1.287512021722     2.817805795627
H     -3.762573239066     1.883235137846     1.134198048717
H     -5.043040530101     1.103675499509     2.152156141113
N      1.428914913607     0.315920309959    -1.465647266734
C      1.208507139758     0.702895918186    -2.760089890998
C      2.096916701802     0.342086255741    -3.752764927764
C      3.211181789592    -0.412293653027    -3.455605209281
C      3.401539899491    -0.805265562408    -2.157526911162
C      2.463063700730    -0.428120358110    -1.174534452269
H      0.329800026530     1.284063584543    -3.007210871990
H      1.914329147747     0.654655802105    -4.767792364119
H      3.914803767991    -0.698112407947    -4.233099819930
H      4.235716576555    -1.409383684937    -1.859612145291
O      2.725214022698    -0.885232762705     0.036187045660
H      1.904309201506    -0.868100953041     0.680500186354

