# STO-3G

title

0 1
C      1.093694516742     3.636858721942    -0.367984246203
C      2.475938240159     3.306687723583    -0.227645398952
C      3.368341048404     3.457332746527    -1.318835205036
C      2.893482725308     3.896182668531    -2.562186163634
C      1.515324644026     4.179789831935    -2.730152349929
C      0.632067043528     4.055710102776    -1.652039842770
H     -2.374592708808    -0.079072971457     1.235351571995
H      2.879405497912     3.069392108417     0.754432039272
H      4.425527248904     3.249839524106    -1.173065235677
H      3.579371809257     4.031460251737    -3.395087265354
H      1.144237454952     4.512639081526    -3.696566461749
H     -0.418919398714     4.306449091775    -1.778524626578
C      0.185906188959     3.708655429081     0.874541394637
H      0.620835082070     4.393863328869     1.611718510452
H     -0.790160235626     4.106739214028     0.581138866906
C      0.021723033100     2.265200398901     1.397527376315
H     -1.004940211361     1.911598500535     1.347986098436
C      0.661659774307     1.826281600592     2.654717367821
O      1.833791420897     2.198667349538     2.918848285821
O     -0.055615733967     0.980750362292     3.510892765021
C      0.673844313327     0.416769938954     4.608077069913
H     -0.005660182845    -0.239838303859     5.196599613649
H      1.519909902490    -0.207260463770     4.239641863675
H      1.060574053642     1.213718570820     5.282187767100
Pd     0.822521864370     1.325664988465    -0.248479671494
C     -0.086319907735    -1.199728032938     1.175044078846
O     -0.433930085822    -0.264105394638     0.252823221534
O      1.084473232086    -1.500810875190     1.467830669175
C     -1.335234945329    -1.784833802602     1.880395278787
H     -1.047343017973    -2.142260983795     2.872732519267
C     -1.966666205537    -2.917501099039     1.100716883219
H     -2.827956757930    -3.319462014219     1.673585963949
H     -2.336002077224    -2.535344615006     0.126857315327
H     -1.228227077308    -3.728373440505     0.933741842088
N     -2.323939998773    -0.714313463265     2.026249043006
C     -2.841379736085    -0.390417953421     3.241927113200
O     -2.654233486491    -1.032612969739     4.302168249366
C     -3.699496766618     0.813413013258     3.256586058423
H     -4.089167719763     0.952365393232     4.280233966253
H     -3.076975990189     1.671891560198     2.961281861557
H     -4.526537837483     0.653654804414     2.543630519492
N      1.258883019155     0.371964762717    -2.188401069428
C      2.445284421605     0.531497273342    -2.853475787442
C      2.563540895137     0.128750433445    -4.169189709248
C      1.496655611764    -0.447422364631    -4.823420193115
C      0.330170618202    -0.626164402433    -4.128190427211
C      0.258470772924    -0.211530699802    -2.781813260634
H      3.295643325584     0.965521444147    -2.345479747396
H      3.500747958673     0.264992182558    -4.683287587063
H      1.583186420706    -0.765775193736    -5.858966453899
H     -0.531373259196    -1.088568253361    -4.567143785566
O     -0.903612063812    -0.470724103375    -2.193654772451
H     -0.857454381369    -0.407709388376    -1.167051381691

