# STO-3G

title

0 1
C      1.383468507066     3.830162881798     0.058249611627
C      2.711616184779     3.307827969958     0.082411338006
C      3.469563724868     3.214136124400    -1.088316973283
C      2.927904812433     3.636303740954    -2.329220901853
C      1.631447273334     4.158057955412    -2.382785291165
C      0.852174374516     4.259210368320    -1.199560675726
H     -1.147355666119    -0.374851845964     1.720139520098
H      3.139362232856     2.989625552394     1.031096469638
H      4.478764506672     2.811869611795    -1.046961615251
H      3.527776046213     3.562222273327    -3.232829885180
H      1.216897378120     4.506139765991    -3.325158236329
H     -0.097915259657     4.784939888460    -1.239488412519
C      0.579068440611     4.041131666415     1.354238721557
H      1.075103690901     3.486648889810     2.160418787507
H      0.577180389487     5.100666354655     1.640838471059
C     -0.843290795095     3.486137394175     1.074226543030
H     -1.484440302690     4.201020879624     0.562128655534
C     -1.594559923784     2.791335196493     2.142792823868
O     -2.827340565891     3.014903525653     2.261413946078
O     -0.882433910731     2.062331490903     3.111567357148
C     -1.684364932173     1.378569524590     4.085700195862
H     -1.024446050270     0.820124652010     4.783383759513
H     -2.289327736224     2.100039906490     4.680390508680
H     -2.364176218712     0.644570349620     3.593998908673
Pd    -0.187288549703     2.185336225126    -0.389404028460
C     -1.945901664850    -0.209467026463    -0.626843794693
O     -1.621657464512     0.846862921473     0.139364303103
O     -2.147982052750    -0.186364829722    -1.862094446184
C     -2.012939588408    -1.514856587491     0.221816802124
H     -1.646536490034    -2.352203464678    -0.379551760158
C     -3.413715317274    -1.819586898365     0.702821159653
H     -3.404703368568    -2.765684533436     1.282461685035
H     -3.760514738824    -0.998194968571     1.362776163087
H     -4.101238375726    -1.924531206339    -0.161445691093
N     -1.151016687120    -1.338483101976     1.394766677737
C     -0.137238907576    -2.200020638458     1.671585985518
O      0.065217509791    -3.288527013915     1.079913465785
C      0.770673907078    -1.814939130487     2.775762824297
H      0.736135900780    -2.622031260283     3.525782313138
H      1.783713976950    -1.731313620721     2.347941946064
H      0.460663589030    -0.856580102102     3.225882393121
N      0.834541508863     0.692428480417    -1.636227893554
C      0.557006497600     0.458678842275    -2.957095105202
C      1.179128311721    -0.585514726234    -3.615477646498
C      2.059910018590    -1.410168968801    -2.945776414541
C      2.313076354058    -1.152888272847    -1.622785601373
C      1.655006386013    -0.075956585063    -1.002553597429
H     -0.141155343022     1.098454615383    -3.484272642187
H      0.949060474886    -0.769686434481    -4.651805677150
H      2.534719424749    -2.246559684140    -3.451713459646
H      2.963103771478    -1.769015046590    -1.034403062179
O      1.936165497676     0.078110910298     0.302940146119
H      1.370294113182     0.796509088233     0.685925971527

