# STO-3G

title

0 1
C      0.480801457618     3.900152763575    -0.316179373499
C      1.895487112676     3.727222210074    -0.233451479436
C      2.733054752982     4.103152942756    -1.316855432004
C      2.180471955435     4.658020598566    -2.476955536728
C      0.772968394321     4.799874443118    -2.586956665787
C     -0.060903275689     4.411729169353    -1.533014961691
H     -3.317669506785    -0.393632655307     1.439438175516
H      2.360268797881     3.451934872129     0.711294876974
H      3.809868789011     3.987367018519    -1.217425629574
H      2.826098750859     4.984060011059    -3.289048048795
H      0.340623985043     5.226058201162    -3.489149706440
H     -1.138127769275     4.536630777707    -1.615990647439
C     -0.404987792347     3.712312021609     0.927970875197
H     -0.052537518994     4.372302627179     1.730611070136
H     -1.431538152877     3.999270888988     0.683792298512
C     -0.360224487224     2.217148463834     1.305655407792
H     -1.326693657636     1.730244150614     1.221180301468
C      0.358305237163     1.764541355166     2.515019629573
O      1.531151817463     2.172244774475     2.713366492451
O     -0.255836922927     0.825951180383     3.357957356342
C      0.533257279204     0.226965539406     4.401903157953
H      0.524902989406    -0.879144441937     4.277238040413
H      1.596460925288     0.555919663244     4.425187245618
H      0.076117865013     0.457463697312     5.387561498275
Pd     0.677563646372     1.532060092294    -0.332146380655
C     -1.289470345781    -0.623077574183    -0.035061521895
O     -0.001337265368    -0.372024422032     0.212258718083
O     -2.030273242305     0.124219418107    -0.726366907732
C     -1.877840840079    -1.788134029861     0.792089787832
H     -1.090497716945    -2.340754207193     1.308013577695
C     -2.738315521790    -2.729325630349    -0.019845050254
H     -3.141673328755    -3.521051361859     0.644701798029
H     -3.588004258721    -2.166632841086    -0.459390895348
H     -2.138724266152    -3.196413562016    -0.827280220266
N     -2.720552891586    -1.131065949993     1.798585231304
C     -2.503797574941    -1.319288267884     3.131495893738
O     -1.676464996682    -2.130653772404     3.609779840800
C     -3.338023007159    -0.520577151724     4.057659126878
H     -4.051058919857     0.106604255908     3.497208947043
H     -3.879533132223    -1.230196686421     4.703974818287
H     -2.659970134155     0.109066760762     4.657858068260
N      1.793175598499     0.612168604384    -1.989033237209
C      2.029092842211     1.272225194999    -3.164965963066
C      2.932037957000     0.763104243965    -4.077220915857
C      3.594587034136    -0.417699698944    -3.821900668132
C      3.315909580348    -1.077817712236    -2.654460625841
C      2.377676991615    -0.527466179004    -1.756101553232
H      1.498899701981     2.188020944013    -3.384307682358
H      3.113839523083     1.295140844286    -4.996546887051
H      4.307208606542    -0.823084667590    -4.535387431928
H      3.776798216238    -2.012449016972    -2.403150524515
O      2.152869248600    -1.275966099788    -0.684214964177
H      1.307131580101    -1.016476822035    -0.166652495473

