# STO-3G

title

0 1
C     -0.132584578038     3.365074269363    -0.145619843972
C      1.282166039045     3.515964211880    -0.273916893309
C      1.858083944724     3.878730026365    -1.519707271813
C      1.042035757934     4.097054503478    -2.635398574952
C     -0.361708700021     3.913445529339    -2.531751612151
C     -0.936710209320     3.539955059247    -1.313128988412
H     -1.116018257744    -0.838632145446     2.026503457334
H      1.914196905280     3.503565288873     0.612705185552
H      2.934913535781     4.013708234504    -1.586623066936
H      1.480770058212     4.413435815665    -3.578717059385
H     -0.994992802248     4.083263209200    -3.399040939716
H     -2.015738928773     3.430155157237    -1.230532645793
C     -0.768913849743     3.213713287727     1.245581609536
H     -0.429264879945     4.029824657684     1.894154307588
H     -1.856585068744     3.284771628738     1.158045565818
C     -0.377030179382     1.815028136267     1.763978634596
H     -1.232235933889     1.161839448656     1.868647671900
C      0.571111752810     1.658130661170     2.887156721459
O      1.622869107435     2.348013017686     2.897170176071
O      0.329206573054     0.672214951756     3.855938021713
C      1.368744221686     0.473400297854     4.824060248152
H      1.065931960881    -0.330941494080     5.528973116286
H      2.315089599254     0.157263796257     4.328330884240
H      1.549172278971     1.402320113527     5.411203175007
Pd     0.581406167206     1.140637217675     0.066473263774
C     -0.240320927431    -1.756374926024     0.015548354082
O      0.532987210165    -0.884770468185     0.736527218582
O      0.221637885074    -2.669791988789    -0.689530168525
C     -1.763317044823    -1.524168123710     0.175082249863
H     -2.277188452118    -2.480207416746     0.024619673056
C     -2.283308855914    -0.525124185051    -0.844853453337
H     -3.392418766224    -0.506988946868    -0.818990880001
H     -1.910881373447     0.489214151573    -0.608050391331
H     -1.961883025998    -0.816629343933    -1.866575095166
N     -1.985119607919    -1.005474270826     1.527418894689
C     -3.204993232932    -0.872657194797     2.103222795901
O     -4.299044478500    -1.053567079852     1.516146591278
C     -3.224732563624    -0.462473135832     3.526414145866
H     -3.766957033990     0.494771903092     3.590764426233
H     -3.768489503280    -1.244943090429     4.081259927427
H     -2.201142629785    -0.359745109673     3.928329293292
N      1.741308643759     0.385062170188    -1.635316261513
C      1.623184837165     0.829912424449    -2.924158588376
C      2.622103772358     0.570845818695    -3.841476873327
C      3.737444540011    -0.152658538893    -3.476741279622
C      3.818194587479    -0.617060343612    -2.190625962180
C      2.768323166406    -0.342101407585    -1.290271880479
H      0.744341585548     1.385701440942    -3.223607627746
H      2.521691851434     0.931921937021    -4.851631050598
H      4.524810750613    -0.363706157562    -4.195480537037
H      4.639618693269    -1.213917106246    -1.847517081517
O      2.909826136075    -0.878629531194    -0.088884855997
H      1.997730370103    -0.961550610310     0.408452391730

