# STO-3G

title

0 1
C      0.457413817196     3.819543297046    -0.111589527090
C      1.834604237854     3.461564835607     0.006291143204
C      2.765635060982     3.835730770646    -0.998455957516
C      2.344488281175     4.566892842216    -2.115482325809
C      0.973177818069     4.897764200677    -2.261806117612
C      0.045669842852     4.516053320155    -1.285948586894
H     -3.485845309395    -0.296351928581     1.933855913452
H      2.212839389004     3.030620995786     0.930837126685
H      3.813501657559     3.572949328921    -0.873107911064
H      3.064828662347     4.884055494356    -2.865927272466
H      0.641641877466     5.462078538786    -3.130328611789
H     -1.002869293034     4.783425672088    -1.396783975594
C     -0.514175825072     3.584955111502     1.056712557678
H     -0.196609072446     4.156393456218     1.939116297231
H     -1.510293428216     3.936146912112     0.774541166569
C     -0.558254202936     2.060648729726     1.288786120154
H     -1.575517074176     1.684428230716     1.255902625817
C      0.168871091862     1.464913593551     2.422974054895
O     -0.204736974846     1.720316725563     3.596667573420
O      1.411639445387     0.871198359850     2.155962245906
C      2.029026258694     0.205524116360     3.266384753148
H      2.988126088417    -0.249538224493     2.937991531892
H      2.245739750202     0.921210939552     4.091546777385
H      1.376869342295    -0.613683791638     3.648995857460
Pd     0.401789959932     1.429921203510    -0.400378363706
C     -1.790315987158    -0.589036544962    -0.125488403389
O     -0.467135947222    -0.421406300949    -0.034035588844
O     -2.564818974577     0.172324086518    -0.753900009451
C     -2.310227159201    -1.687342735276     0.838768221275
H     -1.497790152301    -2.361543475162     1.118104674730
C     -3.485419671009    -2.467170783581     0.294322060092
H     -3.814820478187    -3.210152550391     1.049589243151
H     -4.326369822129    -1.774015203327     0.084619194961
H     -3.195356158676    -2.993531846964    -0.637630611893
N     -2.740842433818    -0.975098768110     2.047024900260
C     -2.048097039325    -1.055627587874     3.219786535113
O     -1.003336547002    -1.722899855271     3.389639710671
C     -2.628288017739    -0.292775851077     4.344602729797
H     -3.639322127918    -0.688364930579     4.536212670142
H     -1.980266415819    -0.424752336080     5.228391278716
H     -2.669311369901     0.772772485583     4.060623148510
N      1.498027397737     0.570399585064    -2.088949317997
C      1.851853758826     1.305778144807    -3.187827092080
C      2.740322064361     0.789996860650    -4.110322424658
C      3.269912188436    -0.471015253541    -3.942575807607
C      2.877509182527    -1.199287534150    -2.850729202497
C      1.959497587433    -0.637970976656    -1.937996293567
H      1.427588429122     2.289030625886    -3.337490658789
H      3.015488784756     1.380156861662    -4.968926092594
H      3.969765868841    -0.882644643489    -4.665036576589
H      3.233722684325    -2.193935790597    -2.669686783027
O      1.622741376647    -1.448536862929    -0.944606161617
H      0.794960898378    -1.147744525402    -0.417438615863

