# STO-3G

title

0 1
C      0.638136416526     3.210092988862    -0.224317092083
C      2.035907777145     3.029869475236     0.024152333686
C      2.993783872796     3.373381870895    -0.966173330857
C      2.578753368099     3.854434490748    -2.213133341723
C      1.194920912899     4.000417922723    -2.485324402185
C      0.243336622194     3.685674061079    -1.510730808656
H     -3.745176050457    -0.741589896359     1.659077961941
H      2.388901977369     2.781533168909     1.021953324574
H      4.052403672315     3.278322694714    -0.736999176432
H      3.310310237307     4.125193110855    -2.970562395892
H      0.870475645943     4.364859865251    -3.457017399596
H     -0.815572263819     3.812629598271    -1.723417802044
C     -0.387273118189     3.017820541927     0.907691225720
H     -0.241261758095     3.756895543891     1.704984552725
H     -1.395438870756     3.152862693919     0.505141989972
C     -0.219305049846     1.556697937886     1.358672078638
H     -1.152966337173     1.021327624977     1.418106699090
C      0.673681104685     1.183591170322     2.472019746261
O      1.356432536707     0.141542945509     2.289992016779
O      1.132853713466     2.188684821978     3.338688681941
C      1.978788831549     1.739507827505     4.405838801614
H      2.251758741056     2.604623105618     5.047643980845
H      1.448123331329     0.991943196403     5.039793367024
H      2.918166062217     1.291545868625     4.009750468593
Pd     0.697108289011     0.849721121629    -0.344069640422
C     -1.917849090271    -1.049204876757    -0.045990341950
O     -0.799528394344    -0.668356650623    -0.667248279762
O     -3.049195748333    -1.058538734363    -0.593348243918
C     -1.793349488427    -1.466174277848     1.441806859860
H     -0.826301563008    -1.185425773036     1.854246090780
C     -1.993825281521    -2.953869246516     1.634179700556
H     -1.906486714759    -3.201378047813     2.712354654752
H     -3.008767356752    -3.237225412417     1.284336611919
H     -1.229537315604    -3.521374319359     1.064634619842
N     -2.861727569879    -0.763754754195     2.160661335116
C     -2.673609495737    -0.070619186710     3.310348457906
O     -1.570809753248     0.090752064872     3.889578066423
C     -3.890363573753     0.551800075866     3.870799324036
H     -4.614521601438    -0.254456118232     4.077792366397
H     -3.621178521029     1.080506199227     4.801563962644
H     -4.295729428826     1.255920330892     3.123799067389
N      1.594657180931     0.276400121726    -2.260634019005
C      2.930442823344     0.460180809903    -2.495819869625
C      3.437414713107     0.316455891905    -3.771871901624
C      2.608429730076    -0.018981813501    -4.820184515319
C      1.279772770845    -0.221685297116    -4.557626610626
C      0.804083593026    -0.077169244884    -3.236667051721
H      3.590906822329     0.720382467357    -1.677771031256
H      4.489518149028     0.470329265241    -3.945833250503
H      3.000520457410    -0.130682061485    -5.827580437961
H      0.581432558925    -0.500667988793    -5.321434617324
O     -0.482571526298    -0.320977531378    -3.089260303700
H     -0.774612079106    -0.455686858989    -2.084352040617

