# STO-3G

title

0 1
C      0.361870742502     3.484761190794     0.260899857160
C      1.771329739015     3.433938432535     0.038930708113
C      2.312873171308     3.753115146946    -1.232600885161
C      1.466896340127     4.144889975017    -2.277844412028
C      0.061820088297     4.172792115080    -2.079301054323
C     -0.485341730823     3.822072020083    -0.840200458693
H     -1.418961583868     0.545975697740    -0.285969922369
H      2.449412110365     3.277738732936     0.876395954806
H      3.390652052577     3.724871744942    -1.374348953578
H      1.886972873668     4.434252948402    -3.238576650015
H     -0.594074426717     4.475714308677    -2.892097879025
H     -1.559852074319     3.826358571136    -0.678748339036
C     -0.214176697944     3.386860559373     1.689469041464
H      0.273596053142     4.131641738194     2.328964191960
H     -1.283828164778     3.596863420805     1.646641055486
C     -0.004836886101     1.938003776869     2.168462455446
H     -0.933217222950     1.401468360507     2.327707067370
C      0.986168506470     1.596213009341     3.207602692212
O      2.129544914972     2.119383983714     3.161633386264
O      0.683241289834     0.569905005757     4.115843002614
C      1.758590665702     0.141109775417     4.962563475343
H      1.399509112688    -0.673796751220     5.627871465724
H      2.602861245638    -0.259124935483     4.355920530601
H      2.122128676691     0.978829548137     5.599801798371
Pd     0.668525617955     1.175533104547     0.386067969882
C     -0.568286608199    -1.617592060995     1.346022721474
O      0.455773625032    -0.764551616556     1.175520568003
O     -0.499190831794    -2.643113136655     2.054342867496
C     -1.886314761763    -1.345162687386     0.537345763676
H     -2.688815010954    -1.790775561163     1.133183519323
C     -1.853493658325    -2.059493260542    -0.797876040856
H     -2.819945468066    -1.910755094134    -1.322683088375
H     -1.040743610046    -1.638417790123    -1.425942261032
H     -1.682881611638    -3.146761789881    -0.651813746308
N     -2.138956239355     0.070962815498     0.264893822299
C     -3.029306043419     0.938308022806     0.808515700655
O     -2.984705370826     2.178156604456     0.589910199239
C     -4.083728094460     0.394119180873     1.689529665739
H     -4.674128010208    -0.334619375304     1.108925203772
H     -3.603149626802    -0.071316522612     2.565820033163
H     -4.734177349158     1.226146796207     2.016670829232
N      1.377235876829     0.253144529254    -1.485423641959
C      1.160082469823     0.799635158178    -2.721101996684
C      1.874368059546     0.347402634161    -3.813086187483
C      2.807215175422    -0.657206646533    -3.673188753289
C      2.989421202404    -1.205792295266    -2.431007969753
C      2.231118715323    -0.722361874111    -1.344255619222
H      0.414844039282     1.573281664421    -2.844603635618
H      1.696372807220     0.787629241815    -4.780402855576
H      3.374012070024    -1.014465019690    -4.528890008283
H      3.684667242423    -2.002213300378    -2.254135447293
O      2.458668014089    -1.345079947447    -0.200049012326
H      1.741365325824    -1.172138534784     0.527493031789

