# STO-3G

title

0 1
C      1.595102458497     3.113967860069     0.348144755630
C      2.762222928449     2.294377440635     0.292467631419
C      3.547821355109     2.237229207567    -0.861043077385
C      3.199544115626     2.996915251909    -2.007900826677
C      2.064771559691     3.812452846335    -1.982802664572
C      1.253821860297     3.875173301939    -0.817322416719
H     -0.799322663248     0.181296649756     1.496343725662
H      3.047954213638     1.715611739933     1.167323370671
H      4.430179753568     1.602620231681    -0.881077025064
H      3.822547370158     2.947518495737    -2.897540493444
H      1.804902508412     4.419620671842    -2.846164007499
H      0.463802145582     4.619442048017    -0.774490788119
C      0.792286286109     3.288791432818     1.649388793769
H      1.058781825737     2.478255299851     2.338280352677
H      1.050986224077     4.233077055639     2.147137733960
C     -0.694308893933     3.201397114111     1.219980492761
H     -1.039103060603     4.114820325688     0.736116573913
C     -1.735834015472     2.719578098543     2.153777601876
O     -2.895895991077     3.197410716610     2.054217614532
O     -1.351196634633     1.978094581188     3.284780703625
C     -2.424618811189     1.505074345046     4.110408970313
H     -2.009660908120     0.916564448804     4.956613551823
H     -3.007055034019     2.355956920565     4.531738959989
H     -3.105620804932     0.842696039365     3.528776503792
Pd    -0.289717584372     1.991919582712    -0.409657736731
C     -2.098213677976    -0.374182168388    -0.535539579956
O     -1.988826353417     0.880837694658    -0.061739665031
O     -2.633072091728    -0.703430196937    -1.614935971742
C     -1.535634787748    -1.462328147605     0.445027378580
H     -1.036360010701    -2.247740104104    -0.130837175822
C     -2.648374131389    -2.087500221746     1.263107498718
H     -2.241019201723    -2.899044088820     1.900689888028
H     -3.108724023925    -1.314629588625     1.910934785897
H     -3.420459695028    -2.516558608066     0.591077650578
N     -0.579872578470    -0.804364286043     1.360320936782
C      0.237497764153    -1.482951745753     2.227121210213
O      0.383021662202    -2.720895344628     2.263929154771
C      1.025753715605    -0.628284702261     3.140994246466
H      1.632909868235    -1.281164078235     3.793311836662
H      1.678844628749     0.011834025702     2.529452061352
H      0.325906696185    -0.026708744590     3.745559443315
N      0.392747047897     0.749995049112    -2.056475770004
C      0.091506829267     1.138321229538    -3.334634301497
C      0.677170891872     0.495455271951    -4.407677418485
C      1.546994949989    -0.554566284544    -4.202593741200
C      1.806223773630    -0.939656700579    -2.913046823824
C      1.178350032731    -0.255241007194    -1.853754207766
H     -0.586765104397     1.967053567604    -3.500578006086
H      0.440082620755     0.811334381115    -5.410218395038
H      2.005927907700    -1.070646570343    -5.041657301715
H      2.453582224030    -1.761460268184    -2.680179904905
O      1.467660833795    -0.741448239753    -0.644388894919
H      0.828782098855    -0.481170530919     0.077514529175

