# STO-3G

title

0 1
C      0.804751683223     3.664091269437    -0.199145773884
C      1.625926139482     2.738362816335     0.515196402062
C      2.995394187575     2.583200208655     0.166562289958
C      3.570076443076     3.371426593849    -0.835339390973
C      2.767634313965     4.306868738309    -1.540910204044
C      1.405676546492     4.423320702155    -1.248818276613
H     -1.107685893384    -2.831809178501     0.572508879802
H      1.270224934732     2.231283505243     1.407752292639
H      3.601850737594     1.872071747614     0.722615866433
H      4.629904890557     3.281805592435    -1.063253292145
H      3.214235190486     4.933949198619    -2.309452066201
H      0.793110358989     5.141432221547    -1.791118435374
C     -0.617915985640     4.028607759486     0.271694746263
H     -0.545022791648     4.756527689587     1.092607121264
H     -1.138669004772     4.519679459653    -0.555368762354
C     -1.372249667515     2.742998214190     0.659053384415
H     -2.326712232234     2.620428826340     0.150369133391
C     -1.502346982601     2.384220334421     2.092745714654
O     -2.601472885605     1.925841930166     2.498517640924
O     -0.550755296777     2.871995730908     3.006704026431
C     -0.714550014020     2.435858673571     4.362826023411
H      0.102111525904     2.857718070647     4.986341994549
H     -1.686789147640     2.785920158536     4.777991453363
H     -0.662506500239     1.324545508413     4.425612060803
Pd    -0.221942721440     1.538491213590    -0.584364586175
C     -2.776803275652    -0.176343495246     0.111090732704
O     -1.705215636340     0.032397485816    -0.675527878048
O     -3.809071457768     0.519222357867     0.091869969141
C     -2.653516647139    -1.465170834021     1.000797896319
H     -3.253748913535    -2.232446301929     0.492130161568
C     -3.220267426839    -1.288849204407     2.393226671249
H     -3.187450752553    -2.257736340219     2.932171795746
H     -2.619746861053    -0.549620892358     2.957668071300
H     -4.271262388026    -0.936592814109     2.340262740675
N     -1.287019618629    -1.988931026511     1.104453562039
C     -0.206327669646    -1.312935290162     1.581007175061
O     -0.212182647455    -0.141432708713     2.032291013217
C      1.067047002365    -2.065500183153     1.559370718217
H      1.287712879239    -2.340899480196     0.514273075605
H      1.866365495736    -1.426372304151     1.971348836969
H      0.936944914457    -2.970830578376     2.177173723649
N      0.949783732380     0.414532612696    -2.104431944125
C      1.900626127829     1.060598216833    -2.848360602204
C      2.756581788186     0.344110925606    -3.661442770870
C      2.659148549035    -1.027064252369    -3.744706186305
C      1.681605388234    -1.650778892397    -3.017283284332
C      0.820709687840    -0.877621493698    -2.209121859413
H      1.968826931703     2.135499684213    -2.816760661967
H      3.502133408795     0.867278496776    -4.237378071215
H      3.329306651140    -1.596822538588    -4.383011968902
H      1.530227548874    -2.711320970283    -3.053072912904
O     -0.106760817401    -1.572600526826    -1.577073517923
H     -0.850838783131    -0.953313921183    -1.116902732917

