# STO-3G

title

0 1
C      0.512693924548     3.871822364549     0.232504120935
C      0.686594320293     4.465736462084    -1.052345070289
C     -0.415602444435     4.753047583673    -1.861559743152
C     -1.728947809814     4.460800497075    -1.416501581603
C     -1.926404865670     3.890791752405    -0.156087834479
C     -0.814486805695     3.586047238137     0.671259184262
H     -2.966044562472     0.486670288789    -0.064379372929
H      1.692193441120     4.703539649532    -1.391929416163
H     -0.266816850836     5.200253447271    -2.840979308777
H     -2.578780043882     4.681539752987    -2.056626868875
H     -2.933325236079     3.689259153658     0.202328298742
H     -0.973034327894     3.274932072191     1.702009368052
C      1.693978219903     3.630912858122     1.181307781529
H      2.603256793737     4.058077322801     0.751332839701
H      1.505623205579     4.135052279025     2.138393653925
C      1.849748499057     2.091568930051     1.333231831659
H      2.802972316080     1.721064121469     0.966596643456
C      1.512230549923     1.443030237679     2.618767163367
O      0.512882335457     1.846158206012     3.269777454591
O      2.328352076047     0.404179379370     3.088378117585
C      1.856932990621    -0.286232888054     4.253850495715
H      2.574245954627    -1.093265577238     4.517032729535
H      1.774668008768     0.406215590530     5.121808850255
H      0.867609411531    -0.760158809204     4.059317308078
Pd     0.466297541626     1.570949319529    -0.114469947772
C     -1.209986657044    -0.021887927532    -2.112066854270
O     -0.887328592045     1.204492902753    -1.747493926108
O     -1.139770589658    -0.493919161479    -3.276495266423
C     -1.700125403293    -0.960271105247    -0.927242732532
H     -0.834828975554    -1.527294523580    -0.569066018650
C     -2.771145040408    -1.939971138945    -1.354301281989
H     -3.067524437704    -2.570306273171    -0.490684538014
H     -3.657961744577    -1.379997884909    -1.714471066361
H     -2.391872993187    -2.592587135500    -2.167780304277
N     -2.243637690288    -0.177184458571     0.190752423654
C     -1.739142343234    -0.129770408376     1.430210848812
O     -0.678175527902    -0.698026296197     1.824224080120
C     -2.532060844732     0.621499192459     2.421347707211
H     -3.505181689824     0.112635081563     2.525552038575
H     -1.992134460110     0.628641864806     3.385464366293
H     -2.678270053333     1.650944109627     2.057027994379
N      1.655726054090     0.022300753335    -0.811748364136
C      2.178103551609     0.344363188569    -2.037806128119
C      3.107992446393    -0.484444334641    -2.628807147965
C      3.497752424082    -1.651376104297    -2.010645320801
C      2.934311985905    -1.964663736729    -0.801734797453
C      1.980512715140    -1.096194995563    -0.230314721045
H      1.878755960586     1.263928165734    -2.528361115695
H      3.515755229130    -0.221267292704    -3.591350791184
H      4.223478938665    -2.313060922276    -2.476128806072
H      3.176330910757    -2.869176223928    -0.279894182802
O      1.467817390766    -1.537118886395     0.896386048178
H      0.592655681737    -1.118649900786     1.262461472203

