# STO-3G

title

0 1
C      0.767410135638     3.284693175394     0.333354062282
C      2.141814483841     3.423076258535    -0.021420802345
C      2.514562918982     3.858832688745    -1.315116671877
C      1.530596762747     4.127040946968    -2.279209790330
C      0.162764475576     3.957399800353    -1.955656617815
C     -0.212809176768     3.548397815568    -0.670415987402
H     -2.606958387796    -1.392859007287     0.002611137039
H      2.912434861564     3.306928770323     0.737398541150
H      3.567129160846     4.002202299844    -1.547824876705
H      1.814502113333     4.478274430103    -3.268750831563
H     -0.600503458883     4.165834788448    -2.701853451543
H     -1.261070966595     3.453883824554    -0.399298791107
C      0.335518371744     3.084872879171     1.801155968099
H      0.780823156284     3.865809825767     2.428368258834
H     -0.751812730938     3.166096403216     1.850507325074
C      0.713900962860     1.651794203538     2.218805196402
H     -0.141502376368     1.135909155995     2.634300507766
C      1.939261041960     1.375449078863     2.990189241542
O      3.043661259041     1.409582913153     2.387348592284
O      1.831497614931     0.910426972053     4.309269857388
C      3.044684956598     0.438334347450     4.910442078589
H      2.830768576921     0.094698338619     5.945507316313
H      3.454826751610    -0.426515625180     4.340488643652
H      3.806388844480     1.248809099329     4.960692415794
Pd     1.025539658123     0.948751318603     0.318069848954
C     -0.406588591429    -1.274446411595     2.010448633539
O      0.155923203225    -0.930988220601     0.835022919804
O      0.224095653392    -1.574015381627     3.040143108081
C     -1.978242652874    -1.211583330080     2.024612220924
H     -2.235141257537    -0.500942771729     2.818311712604
C     -2.604048408826    -2.549397600508     2.351419711405
H     -3.707094255152    -2.439241631851     2.403382353091
H     -2.354327462005    -3.279953640334     1.555214696160
H     -2.229274009827    -2.921555863423     3.327549226480
N     -2.551645075670    -0.733560808891     0.770486867077
C     -2.649311879994     0.592006114466     0.489589604994
O     -2.315438641367     1.514792442027     1.275801313375
C     -3.188223170539     0.958074727526    -0.839441066025
H     -4.036129130019     1.644125701547    -0.678490508032
H     -2.382549378847     1.455643932631    -1.401455232778
H     -3.527789483064     0.061492301090    -1.388173190831
N      1.145858639731     0.269562474040    -1.794590937232
C      2.066489121060     0.790943795760    -2.663489510578
C      1.963332489329     0.540349989942    -4.017968880260
C      0.942469975669    -0.244216670562    -4.508796292516
C      0.051636628337    -0.780566229824    -3.617498206593
C      0.203827569131    -0.508750537802    -2.241272411101
H      2.884572565553     1.389993586921    -2.287415091925
H      2.691301869686     0.961122754273    -4.691722691709
H      0.855644661913    -0.445059175987    -5.573305558016
H     -0.751531504263    -1.420221953928    -3.924340602225
O     -0.684361518765    -1.100839571919    -1.458833335089
H     -0.418775587681    -1.051977843829    -0.423673196269

