# STO-3G

title

0 1
C      1.364362871365     3.313580580027     0.649517582644
C      2.333200951974     3.658410955597    -0.341012195297
C      1.938853241512     4.135058220822    -1.593796103869
C      0.562217894615     4.282541377534    -1.906471324071
C     -0.408858751669     3.931322789197    -0.962751786102
C     -0.017771958059     3.439960299846     0.311026836148
H     -1.605307425204    -0.601458949441     2.124852078849
H      3.389950030853     3.560560200310    -0.101984377836
H      2.692342551810     4.401685137664    -2.331178726130
H      0.267941437409     4.675322965653    -2.876734360023
H     -1.465854353589     4.045318497227    -1.187197200526
H     -0.773025343129     3.315427983467     1.082895256706
C      1.772392168835     2.977907642672     2.095063720136
H      2.863439989455     2.973462722464     2.165027794150
H      1.393364239460     3.755027000405     2.771084945097
C      1.224920221173     1.561981149469     2.405337339051
H      2.002542731717     0.819067864732     2.559545003703
C      0.133824828840     1.371844600546     3.383610457392
O     -0.723373998504     2.280814360855     3.539963376569
O      0.088066194333     0.184181900816     4.129540128452
C     -0.997566875254     0.064304562605     5.059585797428
H     -0.928067433639    -0.915923071785     5.579486738613
H     -0.952511426333     0.869130867559     5.827889198504
H     -1.978369197175     0.106984221679     4.534042530754
Pd     0.800972800796     1.088966640605     0.440931347705
C      0.653018917126    -2.013664296418     1.071505284108
O      1.350476533012    -0.882583849921     0.912750344422
O      1.171102737816    -3.098974159848     1.415929908851
C     -0.883569676503    -1.990441310579     0.770330867659
H     -1.299409233983    -2.782258801963     1.408167980508
C     -1.159817864443    -2.377910916416    -0.669246816559
H     -2.254340690205    -2.416190688223    -0.847898190756
H     -0.703563639636    -1.638443771845    -1.358159494412
H     -0.730925725802    -3.378915369279    -0.884059314790
N     -1.575396391239    -0.736655842859     1.120472166888
C     -2.221787116145     0.196936158998     0.357087200346
O     -2.183220701552     0.313491966592    -0.889511521846
C     -3.083103427529     1.128925023159     1.122352685079
H     -3.846866164845     0.527967336647     1.644344304253
H     -2.465530295476     1.677756956804     1.846976218799
H     -3.568081170896     1.832448125781     0.421597712701
N      0.994117214387     0.569042645196    -1.687942442124
C      0.180219560841     1.043799763233    -2.682784453324
C      0.519690406529     0.843005078840    -4.007233046050
C      1.666525043364     0.156802378591    -4.340788486322
C      2.451480874795    -0.326970760837    -3.327648703286
C      2.061929840433    -0.109414787826    -1.989649505007
H     -0.714580356941     1.599252018359    -2.437747373848
H     -0.125086915955     1.226855157546    -4.780133839165
H      1.936557430129    -0.004460176462    -5.380934780442
H      3.346885165085    -0.885084112036    -3.514942206834
O      2.873650971620    -0.657380028084    -1.090789303105
H      2.439594127581    -0.784223147404    -0.168816169005

