# STO-3G

title

0 1
C      1.717772019382     3.430493257271     0.255027407935
C      2.947667517062     2.736458387049     0.051927996568
C      3.638760283040     2.834891282370    -1.156488816310
C      3.124088027367     3.622258422761    -2.219612661933
C      1.920472069666     4.310965987135    -2.052447775903
C      1.209744863220     4.224829376982    -0.823742571090
H     -1.748903954286    -0.534225425480     2.084560485062
H      3.334135566780     2.105654264078     0.847444415051
H      4.571554844835     2.291614727494    -1.288281740858
H      3.672005741860     3.690519704234    -3.156491749469
H      1.525949366101     4.933449030775    -2.851730891960
H      0.358781755159     4.881775886907    -0.671778787648
C      1.005764066408     3.416915902297     1.621390976564
H      1.353169493976     2.537816197319     2.178769937449
H      1.262636766648     4.305619201149     2.215101553751
C     -0.503458083660     3.300170662654     1.286916938490
H     -0.912873482550     4.232688794253     0.899441385278
C     -1.459942782120     2.712818286259     2.250917451280
O     -2.648308764883     3.130063405356     2.227571028780
O     -0.960138239588     2.022362136981     3.371175838075
C     -1.936231388135     1.647519083336     4.354548085217
H     -1.434970033148     1.119169379422     5.193004954255
H     -2.445580197809     2.546222481162     4.770963590957
H     -2.697593630852     0.964022617628     3.913660817408
Pd    -0.120280583292     2.192366108505    -0.408251636477
C     -1.881800946074    -0.233261568881    -0.610770226224
O     -1.643316789941     0.870994897068     0.082934340292
O     -2.226245546671    -0.323150387921    -1.815297515545
C     -1.666271507244    -1.537823550680     0.243576341759
H     -0.913571380178    -2.148733710196    -0.265461215687
C     -2.933705748727    -2.348779485505     0.392909449391
H     -2.719232815245    -3.269220995508     0.974018033420
H     -3.690934853225    -1.748449990609     0.937134710443
H     -3.328836185864    -2.629170151758    -0.605408186802
N     -1.182301881766    -1.215554225538     1.590030279285
C      0.080130688096    -1.429856190118     1.988235971035
O      1.003610717542    -1.918876957186     1.263603659909
C      0.420121006753    -1.074440578220     3.379877398560
H      0.934297011813    -1.939304685740     3.831394970883
H      1.086031938381    -0.196855204648     3.345109814631
H     -0.494242729525    -0.844672949819     3.951410231827
N      0.606941239102     0.890939202818    -1.990714899116
C      0.160786437227     0.903339339654    -3.284770797734
C      0.476757250224    -0.141417619906    -4.133016181880
C      1.221592418297    -1.209236523117    -3.680170383557
C      1.654819606287    -1.196021592986    -2.378892123860
C      1.317852432699    -0.094356067373    -1.558404129350
H     -0.439595442905     1.732399193463    -3.640222998435
H      0.112374868742    -0.127845065003    -5.146575091009
H      1.462120272971    -2.038776439247    -4.339592870484
H      2.250498088732    -1.987686165833    -1.971919268613
O      1.770981918764    -0.099750888260    -0.297159784159
H      1.620994629332    -0.952064329574     0.239900045830

