# STO-3G

title

0 1
C      0.271866361862     3.443182757977     0.354804606356
C      1.678215998004     3.373536480418     0.116263359873
C      2.207753410720     3.668349214440    -1.163992784359
C      1.355478631089     4.054322834195    -2.207064754988
C     -0.043056542713     4.120302940140    -1.989074913850
C     -0.575285890355     3.802825408084    -0.734703966345
H     -2.712031051859    -0.442096417648     2.003347478920
H      2.363290324869     3.202303494867     0.944105669798
H      3.282361360522     3.613962318026    -1.320352671443
H      1.768076090247     4.309633530087    -3.180539470097
H     -0.705628076618     4.417048563624    -2.798123165415
H     -1.649096209205     3.850160672355    -0.575210435150
C     -0.274551147698     3.332938842206     1.794721482724
H      0.232320627994     4.069159541196     2.430407500230
H     -1.340368133272     3.578451155355     1.786303747058
C     -0.062265217518     1.876021878630     2.265774776326
H     -0.985221530467     1.337554931905     2.459232766744
C      0.949879656106     1.535919747662     3.287169088797
O      2.062226349986     2.123736404181     3.273962264977
O      0.664278956864     0.518972248676     4.210536858649
C      1.760047396416     0.087461378226     5.028896568518
H      1.415450314068    -0.725100634449     5.704673618874
H      2.585144757461    -0.318577776008     4.399992787150
H      2.144500894766     0.924350699968     5.654759381533
Pd     0.541021179798     1.126885506469     0.454150274116
C     -0.131053826088    -1.804609056538     1.502273303239
O      0.704750204418    -0.781250602243     1.298253449954
O      0.190684476605    -2.836878797948     2.133903231945
C     -1.565051619522    -1.749100313640     0.869155181897
H     -2.121245302702    -2.534417989176     1.396705762002
C     -1.538228884652    -2.122763845329    -0.600441127586
H     -2.568190444733    -2.106848103212    -1.013034935460
H     -0.909036983155    -1.409151071741    -1.167752036001
H     -1.119624831671    -3.143080318086    -0.725509570097
N     -2.321585687968    -0.497225174547     1.068475831899
C     -2.587696362884     0.543174230762     0.229289238711
O     -2.068928724474     0.763390502223    -0.892716935316
C     -3.614276709348     1.488596727860     0.729666989057
H     -4.551596833878     0.921235911292     0.863161148354
H     -3.276866824318     1.904650732307     1.691269157523
H     -3.761021985172     2.291539764671    -0.015006424191
N      1.199345463300     0.301282359928    -1.437782276301
C      0.695773321894     0.744067031551    -2.630940437280
C      1.254404333395     0.306804398630    -3.816812186077
C      2.310430785466    -0.579638694776    -3.809121402862
C      2.774483236414    -1.028458780296    -2.599750206070
C      2.165713756177    -0.566319558437    -1.414741420566
H     -0.136271123929     1.435783077545    -2.645071884060
H      0.855592408880     0.664996118149    -4.751229046040
H      2.753992986905    -0.925273004610    -4.738998726792
H      3.575383579285    -1.736020513508    -2.520105558324
O      2.648351036152    -1.101452460661    -0.299266807890
H      2.018072809506    -1.000730159350     0.505815234543

