# STO-3G

title

0 1
C      0.301329875006     2.717778764133     0.240627166178
C      1.664897234265     3.147586407697     0.301314991797
C      2.250180063485     3.845188921202    -0.783976047391
C      1.506781337732     4.090015879707    -1.947092366982
C      0.168591709095     3.635468095132    -2.035142470478
C     -0.427442021399     2.961923049818    -0.962728475177
H     -3.823320794240     0.145379690180     1.030003663184
H      2.222235572875     3.060892807538     1.230708893198
H      3.272453330343     4.206071007687    -0.698205001479
H      1.950179716935     4.633217993664    -2.778420201252
H     -0.404267027340     3.809432545630    -2.942714233025
H     -1.450115381324     2.603478289950    -1.042355447367
C     -0.389006496752     2.124533751746     1.484623072640
H     -0.366503943552     2.826718373158     2.325758540822
H     -1.436607397315     1.922782929418     1.246599809003
C      0.334601615216     0.792804400925     1.752606246007
H     -0.314876007656    -0.061787647899     1.832635953138
C      1.418542500487     0.672472891473     2.747888868475
O      2.119238452127    -0.370861742288     2.705558323719
O      1.872257647046     1.818076250993     3.423494168889
C      2.962611721323     1.616599411755     4.333754972916
H      3.216631924662     2.581597608260     4.823360839469
H      2.684213683569     0.887909327746     5.129068506304
H      3.867424782159     1.251157225788     3.797049785245
Pd     1.153235018741     0.543999662507    -0.117960620686
C     -1.709793551914    -0.697890792884    -0.268289150323
O     -0.437772967637    -1.031389118679    -0.508166690696
O     -2.385772071846     0.116171954901    -0.952532495103
C     -2.349636654381    -1.347054737216     0.987889320795
H     -1.571620535216    -1.683264934449     1.675398087722
C     -3.232966697838    -2.523325863513     0.633839075820
H     -3.663581674450    -2.953424188460     1.561670462479
H     -4.063294920087    -2.178134605096    -0.017006175296
H     -2.643826564255    -3.302185835766     0.107391675821
N     -3.178655750249    -0.336759802715     1.648580015500
C     -2.903405280847     0.152452808506     2.885701655453
O     -1.939873725037    -0.200496204337     3.608877969520
C     -3.834949837167     1.192816108757     3.368492407125
H     -4.846222438259     0.752352698138     3.390326438117
H     -3.524620998721     1.502364101468     4.381548067067
H     -3.797447991498     2.046336882700     2.670031999992
N      2.051700901123     0.320099821953    -2.094345602786
C      3.200554948171     1.007527782003    -2.381136152198
C      3.760825259366     0.932412880844    -3.640083529735
C      3.172229295696     0.167857362178    -4.623174458015
C      2.028424528309    -0.517778961581    -4.313583615380
C      1.487380143625    -0.416878412934    -3.013631920037
H      3.679525485719     1.601232811401    -1.612768257832
H      4.665064139283     1.478414560002    -3.852974002701
H      3.606366623782     0.107057495019    -5.617644128665
H      1.518802463783    -1.131435625985    -5.029641269124
O      0.389468768072    -1.113427689903    -2.830686826280
H     -0.023023915426    -1.076540676395    -1.855142188807

