# STO-3G

title

0 1
C     -0.258434910659     3.330548994959     0.232091836211
C      0.773150266272     4.240277900222     0.618870599265
C      0.940131250969     5.470301706827    -0.072023860920
C      0.091026187759     5.796750178766    -1.137695304728
C     -0.930393196258     4.895752026001    -1.534337256753
C     -1.100194822555     3.676319047943    -0.869341506706
H     -3.739949589552    -0.361384757229     1.220924318489
H      1.358466690440     4.046333911225     1.515524583024
H      1.719290044241     6.159941751629     0.242646209766
H      0.214416558801     6.740410680982    -1.663492101887
H     -1.578608310092     5.147583779577    -2.369850095391
H     -1.856269245963     2.962618155188    -1.186065731560
C     -0.500078133725     2.034992483700     1.025377193985
H     -0.584126080891     2.246843006916     2.096324983564
H     -1.427767935056     1.583759415580     0.676651931873
C      0.674924875183     1.083970249823     0.709800980179
H      0.416228262851     0.223534329177     0.104724442831
C      1.686194740486     0.747696982720     1.730582742770
O      2.576244311725    -0.086019290675     1.420164002451
O      1.919002516691     1.677178592220     2.760595604287
C      2.819988279764     1.278349962465     3.808054350147
H      2.318956986952     1.412618177212     4.791246321088
H      3.145141830051     0.213518113324     3.743543732093
H      3.722624392171     1.925755272378     3.788160409484
Pd     1.552311120820     2.300605586417    -0.715589283986
C     -1.954272235513    -0.640799506885    -0.950538221057
O     -2.351537439822     0.549115961749    -0.977995499263
O     -1.125947494420    -1.207873311125    -1.830801291018
C     -2.346518248724    -1.595116485072     0.209533940645
H     -1.440825772813    -2.125690102732     0.517199852715
C     -3.397992618948    -2.605158158595    -0.194440936428
H     -3.617827486016    -3.272000383923     0.664716722688
H     -4.328418940550    -2.073821419341    -0.481682607313
H     -3.037298972101    -3.215285475975    -1.047982250300
N     -2.853398926816    -0.834979057547     1.347452597013
C     -2.041846503236    -0.447231970230     2.367312377755
O     -0.814610126814    -0.696956901903     2.452676917836
C     -2.699867502515     0.337281864162     3.433157924749
H     -3.512741048111    -0.280758887552     3.850200769688
H     -1.952957227296     0.575175726884     4.209722329378
H     -3.103835429586     1.261001688980     2.983408558494
N      2.554495833415     0.765889668949    -1.631186488816
C      3.852772715054     0.416107829174    -1.379033171352
C      4.406129605163    -0.680203536356    -2.006153801926
C      3.658941452944    -1.446773615628    -2.872503242577
C      2.355172502519    -1.094042591288    -3.101711761488
C      1.807818447521     0.037357144964    -2.449989598040
H      4.448025014272     1.008679822227    -0.694170711800
H      5.429242307374    -0.946927340721    -1.798967273186
H      4.092894068687    -2.315834342743    -3.359802283117
H      1.724328048341    -1.655441158358    -3.760609683510
O      0.568670002279     0.305893018183    -2.680787337372
H     -0.462743408447    -0.537524868842    -2.350160460708

