# STO-3G

title

0 1
C      0.085391584214     3.622227180200     0.779703365755
C      1.262542990947     4.433448302538     0.742526382230
C      1.327198585061     5.569017685083    -0.104167216399
C      0.229412998515     5.904372781138    -0.910901838588
C     -0.943212978028     5.110926052919    -0.878915416206
C     -1.018701270646     3.983160830783    -0.050437802718
H     -4.233797597155    -1.119538550379     0.259413529556
H      2.072385931241     4.239009126430     1.443891891092
H      2.222919720868     6.184909689788    -0.107977652495
H      0.275150859577     6.778818501878    -1.555462587008
H     -1.794159891563     5.379023954985    -1.499959400401
H     -1.918360061662     3.376765524338    -0.000382063322
C     -0.015658576659     2.437581204913     1.765856572733
H      0.328728029225     2.746178966560     2.758156290588
H     -1.057451018343     2.116624976061     1.819591184113
C      0.833585913017     1.293536651340     1.177083701161
H      0.261859980445     0.495521334634     0.721970973595
C      2.051501097846     0.802500378877     1.842851581952
O      2.929063762594     1.643325335403     2.171674202222
O      2.349358850117    -0.567203898111     1.760246433123
C      3.638261564877    -0.963884349435     2.247971147806
H      3.747296775097    -2.065128217495     2.142107184135
H      4.450220746908    -0.479894787183     1.659509308863
H      3.752600582981    -0.704972799371     3.325109934820
Pd     1.470270110532     2.297238834998    -0.500743865880
C     -2.321285383163    -2.002967165916    -0.940700389281
O     -3.407774666884    -2.607827314690    -1.058239874742
O     -1.241733357937    -2.225799184644    -1.697262954535
C     -2.168223824600    -0.913207344290     0.162756150431
H     -1.557541624162    -0.086151464306    -0.204867255845
C     -1.546315659074    -1.483296977701     1.422571275492
H     -1.463018075409    -0.686083024660     2.189582634116
H     -2.203203419747    -2.285903734035     1.818898078609
H     -0.539317512469    -1.896385541522     1.206853101004
N     -3.508879713428    -0.443430069038     0.491742364464
C     -3.779899805672     0.823211071066     0.844340911904
O     -2.915382694212     1.725060329176     1.023106855654
C     -5.209001581982     1.139393304674     1.033117379596
H     -5.599054698962     0.472892102805     1.820631691713
H     -5.302058533603     2.197275764547     1.332194457926
H     -5.729062104475     0.955053401713     0.076954410542
N      2.425081519071     0.649646787541    -1.257267258784
C      3.786180128916     0.621738612481    -1.390485664541
C      4.412099687364    -0.518878652335    -1.843086705897
C      3.680672801117    -1.638009472840    -2.173743442272
C      2.318957697101    -1.596515479567    -2.030723021726
C      1.696609808020    -0.418332151312    -1.550078990045
H      4.370901950661     1.498975728739    -1.138846872042
H      5.484998485544    -0.529925754811    -1.947334691418
H      4.173429566470    -2.536218884560    -2.537142033671
H      1.707216966582    -2.444543467280    -2.267713583757
O      0.421159958169    -0.445356281908    -1.399646506521
H     -0.468822051025    -1.497330449451    -1.588198349038

