# STO-3G

title

0 1
C     -0.415614048783    -2.538659773670     0.718607898894
C     -1.306901378081    -3.070296217643    -0.250631748568
C     -2.567679816010    -3.537286797850     0.139127983500
C     -2.958341086917    -3.485745326415     1.499702513708
C     -2.086629174781    -2.965732944304     2.469323898863
C     -0.807919703501    -2.493374768106     2.087470868754
H      0.592660924069    -2.266388267385     0.416757587429
H     -1.011756826379    -3.082630152587    -1.295245412802
H     -3.254074430843    -3.930932412626    -0.606823662016
H     -3.938897325848    -3.856168072798     1.791024849721
H     -2.380889352537    -2.940030522239     3.515532427961
H     -0.097103410684    -2.148968699501     2.832701521814
C     -0.750030071529     1.930630597484     1.689893195207
H     -1.798708422662     2.179192340177     1.815316450947
H     -0.141569336569     1.828288459055     2.582904559996
C     -0.116922839509     2.043517044835     0.438695931922
H      0.956192528490     1.970986455939     0.367932844474
C     -0.770976234195     2.512996514562    -0.796954603799
O     -1.960069352523     2.934886752983    -0.748777385581
O      0.010047448281     2.677457875958    -1.955235011438
C     -0.715429369046     2.992725259390    -3.150376714159
H     -0.004243328322     3.082364783362    -3.997935941203
H     -1.442201896129     2.182665526938    -3.389970457640
H     -1.256275940216     3.959815027989    -3.042825544503
Pd    -0.583235859340    -0.134989010534     0.933315510665
C      3.206636345172     1.447381494304    -1.396891385456
O      4.032607938693     1.787549992279    -2.459271535339
O      2.907224542092     2.309679918322    -0.570575488543
C      2.789750066891    -0.063939908086    -1.316171453744
H      3.746942827964    -0.630613499124    -1.296428310362
C      1.988181269415    -0.510682631777    -2.522894600278
H      1.693778608615    -1.573788180805    -2.396016513152
H      1.051582830593     0.088148182903    -2.582377693200
H      2.551341630344    -0.412471625114    -3.469967070374
N      1.925521330969    -0.276205326478    -0.188604816229
C      2.215418596236    -0.258968801135     1.070471096264
O      1.229138745544    -0.247582065640     1.960339241113
C      3.597115116476    -0.264369577755     1.592884786580
H      3.554110876997    -0.283321923771     2.696682039594
H      4.102055765249    -1.168989028910     1.217711084289
H      4.103848334686     0.657243309774     1.258160741461
N     -2.398423940852    -0.079688917012     0.086090844615
C     -3.529329972060    -0.079670327660     0.850635651235
C     -4.766589021086    -0.171763005001     0.251172156006
C     -4.879270097567    -0.255617904770    -1.118960073538
C     -3.739565465836    -0.262509542291    -1.877822097302
C     -2.466452267263    -0.172911298937    -1.256190785615
H     -3.450715529448    -0.011312870535     1.928956996174
H     -5.652134865959    -0.167181899415     0.863019875642
H     -5.855967718435    -0.319613853347    -1.590104950235
H     -3.764131769289    -0.329176710656    -2.944803719848
O     -1.442233761258    -0.197087038729    -2.003000002812
H      4.250490589430     1.021810106889    -3.028677756793

