# STO-3G

title

0 1
C     -0.637189707524    -1.098685056547     1.149735324949
C     -1.419111904278    -0.552698844090     2.201538266320
C     -0.953727304892    -0.586981970626     3.523978175532
C      0.308847833968    -1.155407920315     3.812841061262
C      1.095087093026    -1.700321365062     2.781738566011
C      0.619937541575    -1.686074297953     1.454257176986
H     -1.115636618612    -1.261519033440     0.161112983294
H     -2.398012914126    -0.131998451377     1.982242822279
H     -1.557819730092    -0.169784058424     4.325863276708
H      0.665601807167    -1.174546980629     4.840099273711
H      2.058910458542    -2.148312806663     3.008673309295
H      1.194939684568    -2.142103655323     0.653576040173
C     -0.785692188475     2.165952469319     0.115804836792
H     -1.570413373133     1.841392224935     0.789767809012
H     -1.094308920905     2.538861635182    -0.853956278226
C      0.541134820093     2.294808576937     0.530140359575
H      1.253495526646     2.733900355066    -0.151139692906
C      1.013201441464     2.147292980997     1.917441219275
O      0.188120756714     2.182431856611     2.867809346553
O      2.398305024609     2.113555194229     2.151281366627
C      2.795612720755     1.979168687988     3.523092285922
H      3.904769320378     1.955892076148     3.585560922415
H      2.431581794127     2.841510163106     4.126909120825
H      2.401581909960     1.032440452361     3.957350027349
Pd     0.272995500966     0.304840058916    -0.605816132445
C     -2.807283006687    -0.172997967028    -3.207267193669
O     -2.564794526916     0.837802842467    -2.325023136753
O     -2.990251602131    -0.025534706259    -4.429102274936
C     -2.707318059978    -1.579020630885    -2.538183545976
H     -2.787521451605    -2.314531800745    -3.356233820190
C     -3.805241175503    -1.832352669221    -1.532356903935
H     -3.679039629930    -2.844678400933    -1.096332496133
H     -3.738367002381    -1.084039208566    -0.715216740458
H     -4.798833316272    -1.761937091529    -2.020785406044
N     -1.449602069063    -1.564612623062    -1.807310493002
C     -0.273698679643    -1.873920540917    -2.239054496031
O      0.822004632874    -1.451539459926    -1.587602815691
C     -0.052076158581    -2.674786338178    -3.459480987727
H     -0.564107417794    -3.643151615617    -3.330911421452
H     -0.457204300229    -2.113561736994    -4.318926884286
H      1.033739470044    -2.832019888601    -3.593088087599
N      1.141224118157     1.239905599760    -2.173661230048
C      2.430398058292     0.845720877015    -2.407325975555
C      3.103991570988     1.318864069811    -3.511384669401
C      2.490778406050     2.180680677703    -4.391192101109
C      1.193709308938     2.548610583610    -4.152793690074
C      0.500403304913     2.046253368528    -3.023415093772
H      2.929255085873     0.182957427216    -1.709619481135
H      4.122481862801     1.011416986360    -3.681230301982
H      3.022609633446     2.556746876397    -5.261068670839
H      0.661715449047     3.204260664752    -4.812697905240
O     -0.714623309246     2.424404306996    -2.908146476749
H     -1.938176347659     1.586705941082    -2.654135029606

