# STO-3G

title

0 1
C     -0.687581924166    -2.127522521499     0.505315104573
C     -1.364415278354    -2.783442465705    -0.558784745161
C     -2.727146279259    -3.091057112073    -0.447257297556
C     -3.437994228815    -2.740394015804     0.726904884649
C     -2.784389910528    -2.085058279280     1.785602867072
C     -1.407296600035    -1.783645144953     1.682992082751
H      0.406333610874    -2.023573265693     0.468998930167
H     -0.811903408112    -3.048881121497    -1.457182966464
H     -3.237751859772    -3.604037474888    -1.259030973123
H     -4.493315687169    -2.991149304699     0.811850700498
H     -3.328757940957    -1.830525847633     2.691648182444
H     -0.874869506244    -1.328031870981     2.513792091579
C      0.617301087293     2.193206109204    -0.407132307125
H      0.436977448241     2.336182880859    -1.467390499055
H      1.645569969199     1.991519068855    -0.133038042941
C     -0.367719216322     2.441555606610     0.563715551799
H     -0.095905502838     2.375692554804     1.606742674263
C     -1.688308305154     3.028620737717     0.277611428628
O     -1.961061999642     3.444386145047    -0.879246614460
O     -2.637953741629     3.075303035359     1.312603156291
C     -3.914544524464     3.630017204438     0.964060477166
H     -4.579694398017     3.614328238969     1.854199603657
H     -3.808109412359     4.686922884675     0.628622192337
H     -4.397967909039     3.035021083229     0.155776196462
Pd    -0.264625643132     0.230222092954     0.168711408828
C      2.907203115884    -1.108312588779    -1.809900249897
O      2.289315925641     0.103171119740    -1.803796161790
O      3.024154665256    -1.846372615307    -2.804513365902
C      3.409482587496    -1.448422108635    -0.366802568986
H      4.340251254660    -0.874866664630    -0.193408496222
C      3.698402142471    -2.920394520243    -0.188096041790
H      4.023519041409    -3.111577392281     0.854798970169
H      2.774641071816    -3.503698698202    -0.386594319786
H      4.495589842778    -3.244659918348    -0.888736487348
N      2.290972948359    -1.110885548370     0.493654175451
C      2.203992511686    -0.207050598947     1.401310614674
O      1.001643616630     0.261599390760     1.791349383464
C      3.386694996959     0.398411297648     2.046918444283
H      3.043946147164     1.080935953512     2.845220520152
H      3.988372933770    -0.418546324400     2.479952699701
H      3.956962856082     0.961376971968     1.288810633828
N     -1.543364868047     0.309203571182    -1.397366086673
C     -2.882404908531     0.203390244408    -1.140511949183
C     -3.789030524776     0.213160297205    -2.177052421984
C     -3.361874363701     0.331055576464    -3.479818936185
C     -2.018593831426     0.427528675128    -3.724432130821
C     -1.094066260980     0.414268664490    -2.650944753229
H     -3.229916474821     0.125241574653    -0.117638362364
H     -4.840633056061     0.132218543310    -1.961403763938
H     -4.075904646516     0.343595452066    -4.298639137835
H     -1.627925762546     0.517709556208    -4.717535562776
O      0.136367515831     0.496311826935    -2.980124626586
H      1.451981617956     0.253460339340    -2.404464234944

