# STO-3G

title

0 1
C      0.577244053341     2.257733624442    -1.342700245895
C      1.210246638175     1.255463403913    -2.128867169389
C      0.806758311860     1.053108077337    -3.453836584522
C     -0.227989229509     1.843907704977    -4.013876721417
C     -0.862320505704     2.835138017312    -3.247231638914
C     -0.459120280854     3.055523207517    -1.908004732743
H      0.994547070973     2.497784874705    -0.370382206986
H      2.000772957905     0.662052817552    -1.677602746398
H      1.293574201679     0.290828416616    -4.057443974014
H     -0.521001078351     1.688305241898    -5.050073195979
H     -1.640242853712     3.455103080621    -3.685777759357
H     -0.877326050768     3.873472753625    -1.328171555325
C     -3.379636975386     1.372150223920     0.586822112183
H     -3.954322006758     0.808736227831    -0.139693372242
H     -3.548669832168     2.442487569253     0.648765331645
C     -2.670017532386     0.728189701131     1.618546568187
H     -2.261949520080     1.319768128468     2.423227509800
C     -2.669157540995    -0.724533520791     1.862601264122
O     -2.238616582261    -1.148792840114     2.968181556481
O     -3.352372367332    -1.575410814472     0.974161536436
C     -3.243706175396    -2.978219646528     1.251068223963
H     -3.787573973890    -3.550213405585     0.469500454797
H     -2.177141681601    -3.300609156150     1.237471197069
H     -3.691442230661    -3.222563897152     2.240818579861
Pd    -1.262781981578     1.416872028892    -0.004809536435
C      2.605230060037     0.652401871737     1.809310578759
O      2.173852888456    -0.018588641936     0.709622297366
O      3.803170190078     0.930929291324     1.981247178242
C      1.502678950921     1.133278072653     2.806536098339
H      2.006988650937     1.852747973332     3.472669144180
C      0.955899916756    -0.000402731863     3.646840350813
H      0.212225963263     0.395936646910     4.368189440523
H      0.444507969564    -0.743945353845     2.998752603502
H      1.775399334055    -0.499697773158     4.203779068159
N      0.399016133042     1.659707772405     2.024743892232
C     -0.118527031763     2.838584618154     2.028581944425
O     -1.088717598325     3.123137762578     1.142998303601
C      0.293408588322     3.911988810585     2.951946145030
H      0.136115858181     3.556060302124     3.984298812034
H      1.356192853980     4.139047828070     2.762312678352
H     -0.324660538327     4.807900153512     2.759403102184
N     -1.457607121029    -0.245864448397    -1.124000892178
C     -2.208695392579    -0.303593415921    -2.263152154255
C     -2.246626383678    -1.466041851144    -3.003576441808
C     -1.529720283119    -2.574519333879    -2.608622698424
C     -0.773616677387    -2.498382837477    -1.468872080361
C     -0.736915270977    -1.294104738882    -0.724443953845
H     -2.779029676793     0.561839724716    -2.578401717264
H     -2.842971848427    -1.503356112872    -3.899470395344
H     -1.558788164216    -3.490004666143    -3.193035206575
H     -0.183425802234    -3.320032600818    -1.118569627180
O     -0.002742013558    -1.270895941951     0.318362838357
H      1.216046333451    -0.379265362034     0.681255073065

