# STO-3G

title

0 1
C     -0.829991422099    -2.101723126174     0.437982101897
C     -1.304424508356    -2.986622636356    -0.568711820499
C     -2.636198961082    -3.421743409815    -0.556335970163
C     -3.518526848803    -2.974504640288     0.458213651925
C     -3.066413928133    -2.095229611786     1.457600596791
C     -1.720865808969    -1.660878048408     1.456691846586
H      0.243258830122    -1.879118073181     0.499972949179
H     -0.620962727557    -3.325826550604    -1.343561158406
H     -2.991883836148    -4.107206803663    -1.322090468654
H     -4.548477070232    -3.325078747227     0.467883334427
H     -3.740868053604    -1.767107459207     2.244622998789
H     -1.339122663195    -1.028324203914     2.253594148775
C      0.120938704763     2.092289450634    -1.125983833850
H      1.123828683748     2.191517208338    -0.726308520480
H      0.062735455899     1.858978427508    -2.182301142938
C     -1.022649653638     2.437437071722    -0.389036668942
H     -1.979136943737     2.441623864219    -0.889828437481
C     -0.994571938026     3.080322223337     0.937827918587
O      0.089728227097     3.532794029881     1.397304818496
O     -2.217563274672     3.308052794857     1.592261990315
C     -2.129677533696     3.946770501877     2.873770401732
H     -3.149909248257     4.065369024876     3.297932495407
H     -1.527420072452     3.331796723218     3.580880684157
H     -1.672273246442     4.958204963440     2.781596870612
Pd    -0.655363148361     0.209013035754    -0.227681772467
C      2.858189649319    -1.042374326728    -1.672017140469
O      2.096503532221     0.039427533446    -1.988648417469
O      3.139876836728    -1.969072657460    -2.452630299721
C      3.268921720112    -0.963667209146    -0.165603852478
H      4.050984815774    -0.187012261832    -0.068427236643
C      3.805207655963    -2.275427657300     0.358135329106
H      4.053491134386    -2.172336522264     1.434023855485
H      3.029385878665    -3.061667144446     0.244340279735
H      4.714677295466    -2.571720739216    -0.204397374530
N      2.020357685996    -0.689474982491     0.523271098769
C      1.694203134469     0.314491336039     1.255934643824
O      0.394343595775     0.599634682839     1.480774511903
C      2.686431575152     1.221502197606     1.867254032483
H      2.148390172047     1.962417825842     2.487515459370
H      3.362145389027     0.615153766239     2.492491932452
H      3.232121451322     1.744664809319     1.064424998922
N     -1.775023786775    -0.101838951130    -1.895848068520
C     -3.119867690259    -0.272248819969    -1.715133220922
C     -3.930766862153    -0.555540611564    -2.791449088813
C     -3.400940567746    -0.682461032753    -4.054910125099
C     -2.051793532651    -0.519220286651    -4.219659230693
C     -1.224151556744    -0.235043719568    -3.105408302775
H     -3.548500723046    -0.165193766796    -0.725982915826
H     -4.988907673481    -0.685156823030    -2.636638970992
H     -4.039581848712    -0.909876718613    -4.904210462003
H     -1.582219717743    -0.616010703120    -5.177948476199
O      0.020257627264    -0.114841260690    -3.359243118930
H      1.309285246876    -0.070490494360    -2.655414940934

