# STO-3G

title

0 1
C      0.634060488794     2.222334206691    -1.407051004793
C      1.236792075622     1.263664767061    -2.264307970154
C      0.764058755095     1.100058257899    -3.572092486184
C     -0.309349680439     1.893729259674    -4.046343754981
C     -0.906671451527     2.852572133564    -3.212425127246
C     -0.436218034166     3.028612569409    -1.889231019718
H      1.077763757429     2.414903301663    -0.434970084762
H      2.054285611625     0.652982112040    -1.892608110238
H      1.221523677315     0.360374136756    -4.224791553415
H     -0.662274346002     1.763769484703    -5.067096760197
H     -1.715009406083     3.476654798585    -3.584772903222
H     -0.840634195712     3.806410076942    -1.248858693477
C     -3.177887141886     1.170081362242     0.893943693599
H     -3.902847033132     0.750401291639     0.203275374542
H     -3.260316773768     2.227095633492     1.129653769091
C     -2.338281682006     0.365508959104     1.678968315077
H     -1.715323011593     0.830961152672     2.441357924186
C     -2.344311758434    -1.106879689097     1.666097360237
O     -1.641094512925    -1.725045397166     2.507777084035
O     -3.200160230993    -1.792287778992     0.783260808867
C     -3.067925438184    -3.220287538908     0.772307063898
H     -3.768651037341    -3.649179041591     0.024868232898
H     -2.032743185409    -3.518547203052     0.487994870386
H     -3.313730618469    -3.648223825218     1.770555634539
Pd    -1.141379054752     1.317088932820    -0.006461323129
C      1.575791516128     0.218051653882     2.556686971339
O      1.022729716460     0.298853342908     1.318040264556
O      2.431999441331    -0.616979152805     2.900730175234
C      1.048019905092     1.354614114458     3.509203051733
H      1.923361434449     2.001917387844     3.719711747781
C      0.551355043857     0.786801464233     4.817690176715
H      0.179533406390     1.609438566682     5.462022239176
H     -0.284524927857     0.082140018184     4.619530502015
H      1.368395339574     0.248594579794     5.341690877586
N     -0.078885817398     1.974273990838     2.852149094423
C     -0.068313800553     2.967065146538     2.041602976840
O     -0.975443320222     3.080391245570     1.045986920271
C      0.960402881421     4.029605161121     2.104885743454
H      0.942586301385     4.455201278707     3.122864492594
H      1.941047605325     3.582363067950     1.874355956630
H      0.718363540640     4.811469552460     1.362115079485
N     -1.336492620643    -0.320406323717    -1.191733470373
C     -2.345115475412    -0.311331411146    -2.115112699771
C     -2.490598035620    -1.362377516877    -2.993917344720
C     -1.626687920081    -2.432292722435    -2.955412468432
C     -0.614836809531    -2.424324025290    -2.034268845164
C     -0.470080965005    -1.331987334307    -1.144148409011
H     -3.030111081013     0.526744710813    -2.156901742492
H     -3.290888520974    -1.343581603693    -3.714372295512
H     -1.740938728719    -3.263137604165    -3.646231157040
H      0.097141985369    -3.221752616475    -1.964375403346
O      0.521580581550    -1.405901236293    -0.341585995171
H      0.941460247394    -0.527478666149     0.650323957154

