# STO-3G

title

0 1
C     -1.286460073589    -0.424426961826    -1.532842497841
C     -1.703472971484     0.303186306566    -2.682327818487
C     -1.630532158788    -0.291405636509    -3.946850397745
C     -1.139582993574    -1.614596858386    -4.086881820796
C     -0.720073471358    -2.341758278320    -2.961721392116
C     -0.800485097702    -1.757552573231    -1.673554404697
H     -1.479961336420    -0.000435141819    -0.552792059115
H     -2.071961902923     1.316750935937    -2.549613831150
H     -1.956100261693     0.261786263272    -4.824588947661
H     -1.101425588739    -2.070921444678    -5.073774956629
H     -0.362721032182    -3.362843020235    -3.068375181229
H     -0.568557783933    -2.337918586339    -0.784984234377
C      2.862137803785     0.842011177720    -0.103051699672
H      3.170091538817     1.627170437399    -0.785383528545
H      2.438320019880     1.172123418208     0.837975773068
C      3.149713325557    -0.513467712330    -0.334740599129
H      2.890774518546    -1.232384864732     0.428603093293
C      3.996093975725    -1.021493793398    -1.427402487469
O      4.546566016685    -0.222473590358    -2.230010512819
O      4.126016026641    -2.412513864874    -1.580327343333
C      4.961312335068    -2.848655981934    -2.662356815808
H      4.990786516265    -3.959525336749    -2.681100199790
H      4.562303889808    -2.493825107013    -3.639683229900
H      6.003066725448    -2.476123963045    -2.532650139576
Pd     1.013312546594    -0.057183791365    -0.936061224825
C     -1.737919622989     2.984599421298     0.595419226042
O     -1.352225620002     2.886069430445    -0.704668828773
O     -2.877617474258     3.359535444061     0.914711938053
C     -0.693990386910     2.528934675586     1.665953068295
H     -1.266558070815     2.409181600156     2.601158515219
C      0.381282343517     3.571546542643     1.885856596060
H      1.072738714359     3.229133710048     2.682602422552
H      0.963180527079     3.715971513802     0.950013831344
H     -0.074828442817     4.537100497631     2.188498531257
N     -0.037437377162     1.341999672040     1.158106681214
C      0.011967229985     0.151243663624     1.640638227015
O      0.574464898661    -0.836108052431     0.922252214011
C     -0.522854962769    -0.210463773091     2.967208641141
H     -0.325825571019    -1.282447581263     3.148808581443
H     -0.006470490580     0.404271906154     3.723217449084
H     -1.610701908107    -0.021881993876     2.970126847936
N      1.473892504993     0.746950059673    -2.724631729195
C      1.842240716876     0.042614880323    -3.835335260097
C      2.106925407016     0.707034300785    -5.013968813168
C      2.015047736736     2.080050780089    -5.082722451932
C      1.636071095401     2.772567889234    -3.962859144580
C      1.350728911995     2.075820752077    -2.763844156871
H      1.930672760811    -1.036077875144    -3.786081612927
H      2.403440689446     0.144554645041    -5.882588473111
H      2.233288869385     2.603697732669    -6.009325756147
H      1.534272702452     3.838215148528    -3.958567464275
O      0.970888145989     2.768333542622    -1.759031622972
H     -0.368379466428     2.726726754376    -0.931131936454

