# STO-3G

title

0 1
C      0.197102691687     3.418801704845     1.071012725622
C      1.105873687698     4.117065707957     0.235125056293
C      0.965955556580     5.498307911234     0.010170400973
C     -0.090731877845     6.216224171150     0.602454833922
C     -1.018769710932     5.531737691266     1.411170878402
C     -0.881098230440     4.151301128010     1.635298840575
H     -2.551117273200    -0.059105225856    -0.843572970071
H      1.904773927501     3.583217197470    -0.273594471669
H      1.677846159679     6.009560597195    -0.634497976649
H     -0.194958913696     7.284560485288     0.427293279604
H     -1.848721029100     6.068967195075     1.864701399211
H     -1.612937237030     3.627025856842     2.245779086585
C      0.262910496728     1.963284243667     1.386469802261
H     -0.706534551391     1.562173511468     1.676531177428
H      1.731394980561    -0.984391244682     0.285270103957
C      1.351134466768     1.149120522754     1.788126571982
H      1.109694113660     0.252722409422     2.345500088966
C      2.758338940219     1.558952547666     1.861725667423
O      3.303430668915     1.912936330081     0.782824792568
O      3.532610880243     1.039103501414     2.911341266792
C      4.939231504042     1.314632485360     2.849263485322
H      5.438826408975     0.877620558091     3.740836233799
H      5.393545510153     0.856862818298     1.941067874981
H      5.128851626811     2.412038031516     2.847503853703
Pd     0.926872504865     0.816292887304    -0.355869476088
C     -1.340817253856    -1.859846654207     0.314006288105
O     -0.365581693827    -2.295921385194     1.163911771113
O     -1.342218003765    -2.070901893424    -0.913746747617
C     -2.415114307535    -1.031005634952     1.023846470505
H     -2.034514857725    -0.663660704260     1.979371919705
C     -3.684509540649    -1.819328055528     1.265900455195
H     -4.417818638318    -1.180542333650     1.801095489802
H     -4.121566238615    -2.121925687160     0.291438816049
H     -3.469824875976    -2.718657538725     1.879043822112
N     -2.727463497553     0.096132697232     0.144073621516
C     -3.030186107649     1.319015364100     0.641531587472
O     -3.110287803535     1.590855444550     1.864707506967
C     -3.248919799541     2.376691521228    -0.364657687461
H     -4.078874533835     2.057750073732    -1.017185067138
H     -3.504677581209     3.313298922233     0.161371519382
H     -2.317501832889     2.507560174916    -0.940756610943
N      1.427483197695    -0.527262892698    -1.958087364910
C      1.315725228652    -0.337534188702    -3.309781843266
C      1.644883167685    -1.360303654224    -4.179728656633
C      2.075080445208    -2.580211039609    -3.696897684401
C      2.177974666453    -2.741844575799    -2.338939071837
C      1.836714211243    -1.664144160084    -1.501861880203
H      0.970607727659     0.614974597290    -3.694937213836
H      1.550922816455    -1.205139219562    -5.242148094263
H      2.326376095731    -3.391082301602    -4.375488248739
H      2.504070241070    -3.658700481094    -1.891842309615
O      1.941076136782    -1.888469675601    -0.175757910185
H      0.436118505830    -2.615757098790     0.667102451014

