# STO-3G

title

0 1
C      0.047047040379     3.568344418805    -0.048099227058
C      0.879356409980     4.540880180371     0.564089773956
C      0.896495331711     5.869257818666     0.103250547195
C      0.083266639497     6.269006497637    -0.974522505010
C     -0.758413169122     5.320050774922    -1.586718893563
C     -0.776494547743     3.995127104775    -1.125048094913
H     -2.467930703121     0.475966612867     1.470867693086
H      1.517743801588     4.291200038973     1.405377496991
H      1.545106557079     6.594716054691     0.589554039050
H      0.101819343292     7.297879957442    -1.325868201810
H     -1.397666360472     5.611649399782    -2.416942994836
H     -1.429676719967     3.268692869720    -1.605894770470
C     -0.085769762382     2.146425836196     0.358746346886
H     -1.010647829569     1.702084329480    -0.009771092102
H     -0.074599366812     0.057051711908    -1.898329814617
C      0.585811685732     1.353820410413     1.316423796887
H      0.090925553784     0.460021094946     1.665375843204
C      1.783440553305     1.726157639458     2.072544359931
O      2.803626857259     2.030084431265     1.397798370416
O      1.913821126018     1.228691590209     3.378358296383
C      3.169464450220     1.480476048998     4.024781145817
H      3.142585677905     1.061228203160     5.054260473873
H      4.005013113960     0.989487167731     3.475975814255
H      3.365273591738     2.574127862396     4.100290625980
Pd     1.431147829232     0.886066393538    -0.657739239453
C     -2.027317255461    -1.192686463627    -0.285174394127
O     -1.428697940236    -2.175394363291    -1.003185470348
O     -2.211263282729    -0.035515378972    -0.722894993168
C     -2.395624620662    -1.603416748014     1.141733432988
H     -1.689611432374    -2.354347434147     1.507598954303
C     -3.800036915956    -2.161419046038     1.236701952030
H     -4.002579696729    -2.469985998194     2.283517206690
H     -4.528111883149    -1.373557837073     0.952078321311
H     -3.912920332577    -3.040439415653     0.569367171585
N     -2.312916724697    -0.397209869579     1.965865830424
C     -1.867819783158    -0.464012189355     3.250101474313
O     -1.554962861360    -1.528553438813     3.831596164590
C     -1.753239175334     0.815871342184     3.982341416769
H     -2.425531390906     0.757716385966     4.853942211170
H     -0.706311040056     0.916191555344     4.313380407727
H     -2.035354660549     1.666746703841     3.336513426122
N      2.198584721804    -0.149039248938    -2.360769148846
C      3.506421985679    -0.288578523527    -2.743744186892
C      3.828818515234    -1.122124503773    -3.798354610438
C      2.842076678013    -1.809546061730    -4.477370325718
C      1.540980428913    -1.643077556920    -4.075884526776
C      1.270188081762    -0.780063427182    -2.998344536109
H      4.285581309876     0.247390101852    -2.213782863414
H      4.860110681309    -1.230160719669    -4.093961576189
H      3.089514543577    -2.461759793340    -5.311014505779
H      0.721585639248    -2.130057550221    -4.565580952068
O     -0.026009296221    -0.645207180659    -2.657781139278
H     -1.023433521789    -1.815326913686    -1.846123135138

