# STO-3G

title

0 1
C      1.302503920253     3.722338011690     0.541252143557
C      2.618731125751     3.255698648762     0.306015542962
C      3.680677008359     4.153404879764     0.099654643457
C      3.451025171794     5.543147800347     0.102777261626
C      2.143339453266     6.023711258823     0.306664507808
C      1.084545148803     5.123087397615     0.519398290848
H     -1.728411485439    -1.187306543775    -0.525856997565
H      2.800991887384     2.184116576601     0.248902398441
H      4.681892744542     3.767320200181    -0.079959162174
H      4.272097610956     6.236227519311    -0.064706249742
H      1.948565133520     7.093878349785     0.298662526666
H      0.079032484795     5.507053681211     0.682648176447
C      0.131752009176     2.833795797885     0.817055255142
H     -0.820143169672     3.280967003145     0.521392503772
H      0.046055926420     2.365407327142    -1.514276432321
C      0.005851965314     1.851004437238     1.849238855404
H     -0.987074806074     1.665506651757     2.235221020169
C      1.100015783854     1.407174183676     2.719787116569
O      2.011293738255     0.736449611076     2.160123208476
O      0.801815270238     1.203039438804     4.075583194966
C      1.777910987408     0.478391712334     4.837014062521
H      1.439875165784     0.409320894485     5.893663273255
H      1.892364893888    -0.559321683897     4.448362238844
H      2.762567280300     0.997929491096     4.819391753379
Pd     0.206546199845     0.802121521079    -0.008720718439
C     -0.368450908704    -1.919957135217     1.869541511828
O      0.453171073259    -1.552653993478     0.796282488204
O      0.089058630839    -2.224150897780     2.973499961275
C     -1.858432093080    -1.921719934488     1.473769497886
H     -2.408961726961    -1.575673582713     2.355177107010
C     -2.335840526446    -3.312277348650     1.114928939854
H     -3.428920840257    -3.287445738556     0.922779575739
H     -1.822999064931    -3.656095976701     0.193693314714
H     -2.132514739997    -4.019422995479     1.946181319107
N     -2.181377979615    -1.033691057956     0.367009624791
C     -2.790913017215     0.172379293970     0.594745966703
O     -3.125915548018     0.598613308482     1.721698366820
C     -3.113440032077     0.957861003863    -0.612520093539
H     -3.780816596679     0.344495690546    -1.242154821544
H     -3.629530315600     1.885039563638    -0.305108638182
H     -2.187546108273     1.195689057107    -1.158608160672
N      0.311980357856     0.104564076323    -2.079824477556
C      0.508864744870    -1.172557568044    -2.534723094465
C      0.582567944727    -1.419002206345    -3.892714365490
C      0.458082944637    -0.387098719754    -4.800984032361
C      0.264082224549     0.881108288286    -4.319817106830
C      0.203278223598     1.081311783938    -2.927434134769
H      0.599314467268    -1.990733128251    -1.830547958839
H      0.734013315320    -2.427151192721    -4.242268802795
H      0.513646461279    -0.574823126474    -5.870002606833
H      0.164601776771     1.734572678912    -4.960332162792
O      0.018506002211     2.341341417850    -2.533900972783
H      1.379881968086    -1.391118162890     1.096145472062

