# STO-3G

title

0 1
C      1.146056048659     2.523374894411    -1.347614036789
C      2.202952237211     3.443143073176    -1.137247396807
C      2.317933613115     4.606707720982    -1.925041370107
C      1.369759435691     4.884009326277    -2.929195153647
C      0.308831572334     3.983653800216    -3.141583730966
C      0.199223644125     2.812016170969    -2.362678881282
H     -0.779269003221     0.911504428322    -0.547650057433
H      2.943791382686     3.256827511047    -0.361387602995
H      3.142660686022     5.295590289530    -1.749634397693
H      1.454097582986     5.786100753956    -3.531317765775
H     -0.434214583485     4.187657450517    -3.911037763321
H     -0.624425111882     2.128629584951    -2.565873397480
C      0.676835934966     1.901976123183     1.358753071328
H      1.337933029510     1.457332927054     2.117200302055
H      0.969887241441     2.942175424212     1.205968289288
C     -0.811950050616     1.848034104062     1.788601789935
H     -1.412973505263     2.264135603702     0.982558735624
C     -1.219425819550     2.564202486548     3.040359253320
O     -2.305463801592     3.208214010303     3.063007085107
O     -0.276653417870     2.708022175549     4.080947697705
C     -0.722228040184     3.442843995868     5.229232835220
H      0.092184841705     3.478336907772     5.983990885903
H     -0.985634772195     4.488671674945     4.951177043076
H     -1.607364930343     2.950953957037     5.692689773569
Pd     1.092960617006     0.795586261435    -0.325909795805
C      0.498335370636    -1.416622987593     2.193210573911
O      0.759750818498    -1.092232223657     0.928345268670
O      0.997608053586    -2.350663106531     2.849343353348
C     -0.546090461938    -0.453338295253     2.888822234294
H      0.057120765368     0.230360521013     3.494199595813
C     -1.524857207366    -1.138676036788     3.822331597349
H     -2.335058765062    -0.430784723063     4.095122009998
H     -1.959550501880    -2.041285689515     3.356941748761
H     -0.997432917699    -1.453437846261     4.746685215235
N     -1.254423552130     0.382141944452     1.870216150736
C     -1.809835282154    -0.125692842030     0.771472664431
O     -1.776659655067     0.508613132160    -0.378767156515
C     -2.548090118407    -1.399212486330     0.787875704785
H     -1.851065651098    -2.225963063025     0.992879527376
H     -3.341797316177    -1.314720823012     1.547889005887
H     -3.007602711526    -1.556213062294    -0.205267829793
N      1.592243163822    -0.424119200358    -2.086395870963
C      2.183047670491     0.168427526597    -3.175673387230
C      2.341601873796    -0.534443931442    -4.352733495601
C      1.914142107661    -1.838379280593    -4.453491793747
C      1.349884813921    -2.419844181310    -3.351398763767
C      1.214172784426    -1.672019760514    -2.162037357687
H      2.542711775611     1.187271693478    -3.119900937895
H      2.801282742361    -0.052153554103    -5.200020892391
H      2.032078946892    -2.394810455860    -5.379614351306
H      1.009436168599    -3.436275339715    -3.355388950328
O      0.681928712783    -2.352393807145    -1.166636486440
H      0.735578353939    -1.897300499157    -0.225483584207

