# STO-3G

title

0 1
C      0.303540598281     2.005168036438    -1.596350325684
C     -0.237750982923     2.946052266088    -0.690444348438
C     -0.283186068973     4.312736314431    -1.037343162885
C      0.195426314296     4.747427283755    -2.287450297649
C      0.727408656386     3.809324565932    -3.193237804788
C      0.787482497006     2.442991865032    -2.850621739656
H     -2.109490743803     1.119311146848     0.963571782125
H     -0.630834409110     2.634265087742     0.272205972305
H     -0.702257830492     5.026023192371    -0.331636083111
H      0.152356901334     5.800625433195    -2.553982966058
H      1.097217071703     4.134763836951    -4.163305672130
H      1.204878310215     1.734016393411    -3.560880004917
C      1.354329085008    -0.433143136415     1.778005616228
H      2.169929129103     0.001991676894     1.206048303348
H      1.157288171316    -1.486585873680     1.603764937973
C      0.627483535169     0.277579425386     2.670716070967
H     -0.155111302298    -0.201327789498     3.239127622603
C      0.788225347399     1.717851718859     2.914776519351
O      0.230147210572     2.237517400590     3.917653448468
O      1.572588426839     2.483161796921     2.029997675686
C      1.604900520529     3.893981468396     2.283810414080
H      2.235334906966     4.391631799332     1.515583736707
H      0.580552105960     4.328094130852     2.226714786681
H      2.041116019720     4.105676151892     3.286244535988
Pd     0.187658811494     0.064666631080    -1.130895852481
C     -1.736154131832    -1.109032535843     0.204165481195
O     -1.634382782340     0.178266906293    -0.140032390400
O     -0.880165123460    -1.922505310680    -0.291908850836
C     -2.814122422623    -1.529418047330     1.225253728049
H     -2.600365474612    -2.579458587889     1.453970093673
C     -4.204762865223    -1.452102922411     0.624710844705
H     -4.943987264650    -1.853265358625     1.349264546366
H     -4.453442815149    -0.390738757993     0.414429598947
H     -4.258733736143    -2.042365529700    -0.313135768280
N     -2.859397172777    -0.807443369536     2.504168844103
C     -2.702331713077     0.448482346351     2.731451430835
O     -2.350878169170     1.463469813134     1.887866222453
C     -2.928265872059     0.874725154296     4.116261476186
H     -3.972134540413     0.634268385757     4.375697575587
H     -2.231212766393     0.313384800838     4.759331798152
H     -2.738726946901     1.960011061541     4.206981010588
N      2.034441755733    -0.368810428425    -1.885931335799
C      2.133531227993    -1.447968076130    -2.724799970486
C      3.375231323394    -1.887643294438    -3.135217810287
C      4.520897696609    -1.253179357067    -2.703976550892
C      4.389695188241    -0.179017476879    -1.862517503098
C      3.103607429219     0.239539376562    -1.473101339271
H      1.236471643383    -1.953532613729    -3.064022920945
H      3.446801100256    -2.737825382094    -3.794763127538
H      5.502158983112    -1.596935673202    -3.021175561389
H      5.238754785430     0.358365441095    -1.487339972770
O      3.095205338712     1.280504765078    -0.648431911386
H      2.176841719828     1.606262818240    -0.450376093838

