# STO-3G

title

0 1
C     -1.429089062900    -2.445704386311    -0.263401657806
C     -2.410250860922    -2.296016975587     0.758097137000
C     -2.510051769244    -3.264855989046     1.784421642394
C     -1.667587303528    -4.388268942106     1.771318604557
C     -0.685700225355    -4.542645453334     0.757832316518
C     -0.559797199628    -3.574966738028    -0.245917406527
H     -1.488854145334    -1.830772967946    -1.158820106757
H     -3.118957456181    -1.475958045480     0.689764229053
H     -3.265498146532    -3.153425936898     2.557473029676
H     -1.772622292025    -5.152481371230     2.538189976720
H     -0.045066852998    -5.420872629829     0.753053846651
H      0.173904319792    -3.691980428261    -1.039018826598
C     -0.919878852684    -0.359122034195    -3.507457681400
H     -1.388710814622    -0.190298857731    -2.543009468167
H     -1.553176902553    -0.164041000942    -4.366615746673
C      0.363597200449    -0.766923622450    -3.646798579158
H      0.792299958226    -0.919728905692    -4.626125460723
C      1.281351459977    -1.015863226261    -2.527017565981
O      0.890335021695    -0.805920261753    -1.346969021765
O      2.571366166889    -1.501449720683    -2.797310377189
C      3.450560158408    -1.604529363943    -1.668469546740
H      4.428914553388    -2.014373499543    -1.999216090774
H      3.632315023346    -0.601094305436    -1.220396218553
H      3.031071800534    -2.287477910556    -0.894481652021
Pd    -0.582295018309    -0.305977458842     0.532216358079
C     -2.075744823869     1.610481790364    -1.013018451755
O     -2.872366875664     2.052369051868    -1.856646674059
O     -2.190848043971     0.365584485562    -0.486858872003
C     -0.864501841700     2.444405313161    -0.502233027737
H     -1.275345497277     3.409115572513    -0.184474020675
C      0.170957044042     2.685359657679    -1.578402867045
H      0.962935041027     3.360384900844    -1.192145077251
H      0.635967011376     1.728837766910    -1.882584483770
H     -0.302723740071     3.159271096655    -2.463773810033
N     -0.194596763365     1.797816298662     0.661235189290
C     -0.678467914897     2.227646184689     1.915519165292
O     -1.710349864148     2.898966794436     2.061137401565
C      0.131794860044     1.864748913148     3.093165979680
H      0.111797585124     0.771336250029     3.215792467054
H      1.160468672010     2.236213751638     2.942157002781
H     -0.309268294632     2.343384308583     3.987327568878
N      1.123551604057    -0.869383703686     1.540298307046
C      1.180288153138    -2.037954719169     2.244373055976
C      2.388255013350    -2.500046437316     2.719748251052
C      3.547759116031    -1.792555830660     2.500825984308
C      3.474402510431    -0.612954139069     1.809923418840
C      2.226831993240    -0.147142132797     1.325929971947
H      0.273436862340    -2.583997096738     2.454616385599
H      2.417833172356    -3.423178740282     3.275011722024
H      4.499335415413    -2.155476536356     2.880211049237
H      4.339263342814    -0.007268078811     1.627959381293
O      2.256539237106     0.987345649432     0.721260255638
H      0.881647193825     1.588635910976     0.606674640078

