# STO-3G

title

0 1
C      1.783345820081     2.767969210786    -1.245386720791
C      3.082754472548     3.291756359514    -1.064997101416
C      3.542812658209     4.345612464157    -1.884384999105
C      2.708451079218     4.887500825046    -2.880466891419
C      1.410251843514     4.368389742378    -3.056184192890
C      0.948868656569     3.310555429635    -2.246005501708
H     -2.300363144445    -1.401748880133     3.205104602092
H      3.741807275863     2.890281992455    -0.296817135675
H      4.546237258452     4.741434013892    -1.739110547303
H      3.060787763737     5.703306978112    -3.507471428567
H      0.754286134879     4.782611292834    -3.819774114070
H     -0.055319193590     2.918009959739    -2.396656019724
C      1.247333860534     2.167384762129     1.946824711894
H      0.886620748194     1.374675437505     2.592583848759
H      2.286087011085     2.455335947713     2.082266910115
C      0.403634731133     2.974331751358     1.191689484863
H      0.791167807927     3.862666371977     0.721447733133
C     -1.060142474178     2.837592280699     1.102072892546
O     -1.694298485891     3.658628972162     0.389806068231
O     -1.667440459863     1.667187020905     1.577228033192
C     -3.012160710390     1.429156682405     1.137437025795
H     -3.362103412880     0.454766495079     1.543593014271
H     -3.696277318217     2.231400633278     1.493842719591
H     -3.058434843209     1.362911147822     0.026175830025
Pd     1.235110641267     1.198990665430    -0.123783550097
C     -0.096359018149    -1.127885881280     1.419236355560
O     -1.169009121905    -1.092407301258     0.680560211310
O      1.023844716259    -0.590480299803     1.111379984745
C     -0.245538098088    -1.786508898035     2.808345473307
H      0.671752193331    -1.594543531523     3.369464614685
C     -0.501764639020    -3.275396515825     2.734978740579
H     -0.595971978893    -3.683217756660     3.762562546034
H     -1.449536364861    -3.461485835825     2.188560362638
H      0.335136001863    -3.783244783272     2.213681257881
N     -1.365916475922    -1.157452321760     3.510341101198
C     -1.167575490309    -0.003676956828     4.206163264026
O     -0.057058371653     0.565263142519     4.345755456686
C     -2.367128991902     0.565799453443     4.853019581272
H     -2.071665438719     1.473003394377     5.407829331460
H     -3.089207957855     0.816243001347     4.060604160806
H     -2.780216679350    -0.194833209315     5.537378826035
N      1.179903243660     0.118086636469    -1.901110321253
C      2.271679899163     0.079411961134    -2.727113828294
C      2.152113343986    -0.412374921475    -4.009507251027
C      0.939163688259    -0.868233190330    -4.473717959268
C     -0.136593687334    -0.832613772680    -3.627354417116
C      0.017649114191    -0.334298709870    -2.313347800223
H      3.229346152793     0.444082719086    -2.374307237511
H      3.015706145119    -0.428887580660    -4.653735647132
H      0.838486891769    -1.250373645594    -5.486076729678
H     -1.106066014181    -1.177861344861    -3.926355846107
O     -1.070907395284    -0.353016952402    -1.595215628871
H     -1.085200443567    -0.606639895337    -0.473891990356

