# STO-3G

title

0 1
C      1.513174457982     2.760581836955    -1.157692181268
C      2.704598165768     3.446884844365    -0.834132918917
C      3.136250607276     4.532903500993    -1.626645520174
C      2.380027619063     4.945260555105    -2.740151721068
C      1.190567111538     4.261939477487    -3.062358050269
C      0.760729165566     3.170970342330    -2.279763928860
H      0.322565739516    -1.699273656652     4.160002982993
H      3.303068621245     3.149096658303     0.025184726603
H      4.056543418881     5.054430361518    -1.369951652583
H      2.709987818492     5.785296312267    -3.347059957006
H      0.597814191294     4.571335094799    -3.921198630397
H     -0.153328698732     2.644161029111    -2.548053619860
C      0.874124048394     2.139951226309     1.946552395379
H      0.565025378221     1.263234877868     2.492741697725
H      1.884250495209     2.500154769280     2.119389308748
C     -0.025015594316     2.922456306106     1.235491375522
H      0.292460312809     3.879278400995     0.853572336960
C     -1.462030724979     2.654613368590     1.092062314169
O     -2.227605934123     3.646944128743     0.970152117596
O     -1.810406728627     1.422787194680     0.520061304899
C     -3.216684641409     1.199023996909     0.346035576639
H     -3.379481643595     0.193462577180    -0.098061217759
H     -3.742185456695     1.232913846576     1.327496012795
H     -3.658949868817     1.953329707673    -0.343320636465
Pd     0.929061007843     1.173730580392    -0.081008167759
C     -0.604952582257    -1.252567870529     1.210633207345
O     -1.350662592613    -1.464668937019     0.176867563541
O      0.464811482219    -0.540205788069     1.221239033174
C     -0.993496683347    -1.967103059679     2.533511271501
H     -0.513036008092    -2.954930182701     2.502025365502
C     -2.487136197499    -2.179740544795     2.688085399121
H     -2.696766407503    -2.650430558650     3.670605305961
H     -3.016410601329    -1.207134643816     2.633083336163
H     -2.865365900016    -2.842244322519     1.882459147815
N     -0.479085019220    -1.271981333843     3.714948966145
C     -0.829374627714    -0.009029096124     4.081676813937
O     -1.634824110701     0.733063607463     3.470853140590
C     -0.180062286827     0.487816893134     5.314850609341
H     -0.551199836166     1.506509117365     5.524793775787
H     -0.452669402156    -0.198810848747     6.133740265049
H      0.911579585405     0.494890784195     5.156017730496
N      1.386618110361     0.032923961403    -1.766686941509
C      2.650829937052     0.126074698850    -2.285809445219
C      2.926513481688    -0.381053597662    -3.537670840637
C      1.938205084671    -0.985489118124    -4.280166971382
C      0.685452549100    -1.083461481262    -3.737486343088
C      0.434282772120    -0.566128939218    -2.445437369380
H      3.435480922720     0.606847087842    -1.713551576724
H      3.922514368727    -0.291865817640    -3.938836290842
H      2.148320526474    -1.380464476301    -5.270536784367
H     -0.124921919858    -1.550726121673    -4.260289135354
O     -0.787576410175    -0.730773014815    -2.029242659588
H     -1.038845624494    -0.960456231048    -0.937360514818

