# STO-3G

title

0 1
C      1.508919797424     2.759853869817    -1.153986040171
C      2.707652457823     3.441359635742    -0.847843034221
C      3.121360644118     4.538739245820    -1.634198913677
C      2.339977353650     4.967164399364    -2.724053910927
C      1.143432694040     4.288358146594    -3.029084144022
C      0.731337410809     3.186085297083    -2.252755381600
H      0.386301656857    -1.658619366861     4.162255251230
H      3.325515161186     3.131006422386    -0.006920702940
H      4.047446410239     5.056553000776    -1.391173553424
H      2.656160964796     5.815994920044    -3.326044565270
H      0.531332382369     4.610057108747    -3.869629476929
H     -0.188608511958     2.662869058629    -2.507711273086
C      0.926389043911     2.091777359218     1.961314040122
H      0.621636932785     1.199130062812     2.484366801329
H      1.939999537979     2.442406668426     2.133974503444
C      0.026781486130     2.895497326768     1.275656698083
H      0.346593317659     3.859298976523     0.913761518873
C     -1.409939246927     2.632928868359     1.123098907477
O     -2.175499512666     3.629358024234     1.041587987238
O     -1.752674873011     1.429524451791     0.490127916747
C     -3.158532690687     1.206457964750     0.311360147680
H     -3.318030747616     0.224922552510    -0.184672942113
H     -3.678799417836     1.184489934419     1.295996646577
H     -3.609348633648     1.993404939171    -0.334554107004
Pd     0.947719533655     1.158766305062    -0.086002912221
C     -0.568855132696    -1.271524219972     1.219615167520
O     -1.337878976023    -1.473150591814     0.201833342324
O      0.507834729616    -0.568241464231     1.208235234673
C     -0.926788236138    -1.985503275840     2.551042319050
H     -0.406762843530    -2.953471393948     2.528653692250
C     -2.410219410019    -2.255999667308     2.713703501598
H     -2.598111706762    -2.721456754781     3.703110504024
H     -2.978803485941    -1.306547563743     2.646447048829
H     -2.763252252627    -2.944074030369     1.918146075252
N     -0.434826747539    -1.261162201344     3.726534804497
C     -0.841730423738    -0.010129811390     4.079994029963
O     -1.653434640218     0.694026565711     3.432338509565
C     -0.280461881210     0.542811754099     5.335017171280
H      0.260726265765     1.468946022936     5.082584878702
H     -1.131940727504     0.770365438529     5.997634965550
H      0.393471748323    -0.181414950890     5.824738207497
N      1.365685475785     0.038392269899    -1.794679661132
C      2.616552950872     0.142324546510    -2.343347780094
C      2.864614217664    -0.353060676297    -3.605606984900
C      1.861845874533    -0.956555914022    -4.329101740671
C      0.623127789471    -1.065656873382    -3.757239124759
C      0.400246703033    -0.560224702919    -2.455257925056
H      3.412527561430     0.622125092926    -1.786133611441
H      3.850216828397    -0.255374732918    -4.029807452061
H      2.050042508477    -1.342322222350    -5.327474271507
H     -0.197093788475    -1.533071353057    -4.264320238603
O     -0.810535104812    -0.735999693819    -2.012492130939
H     -1.040538968811    -0.967107264476    -0.917377986604

