# STO-3G

title

0 1
C      1.746975421370     3.603052587036     0.177302326170
C      2.494867211228     4.029623390217     1.325742337048
C      3.860355840208     4.413786029344     1.192629508717
C      4.476276616801     4.387424100654    -0.062386705307
C      3.740419749354     3.976360984905    -1.206289173060
C      2.406600388033     3.577338904701    -1.091336916001
H     -0.841182987820    -2.674603388944    -0.252677607171
H      1.986058819098     4.218872056737     2.269409649102
H      4.407010618911     4.747848847273     2.070849203318
H      5.515834901448     4.688163316480    -0.166227971444
H      4.223000827404     3.962477853986    -2.180297356638
H      1.847318278501     3.225861042353    -1.950955529373
C      0.245890797242     3.275875269870     0.303664054511
H     -0.304468515499     4.139791710353     0.693987269671
H     -0.155387363266     3.005103911328    -0.674449396174
C      0.174783693855     2.053555511785     1.237247231009
H     -0.188575587437     1.152421143706     0.767477143685
C     -0.269521580686     2.147916694296     2.645191538430
O     -0.264870146844     3.275530363557     3.206204165630
O     -0.242118244389     0.975839683244     3.416184175699
C     -0.693320364003     1.107296564366     4.770905971244
H     -0.654041721191     0.114348061614     5.268116443360
H     -0.043460742575     1.808530566788     5.341822942652
H     -1.747073044651     1.466659241115     4.801245250216
Pd     2.212948504727     1.660218769476     1.305358122195
C      1.196566769224    -1.073403230942     0.933189532886
O      1.304769912503    -1.028650375976    -0.341473051783
O      1.882096015738    -0.358235767290     1.780515355685
C      0.082162723298    -1.986381265311     1.522846872229
H     -0.287886731684    -1.508305413414     2.432793620323
C      0.574635340737    -3.377142560468     1.856024237633
H     -0.260286673186    -3.970376949157     2.283009059980
H      0.931522288413    -3.875788377553     0.931738254221
H      1.400679791106    -3.323562920438     2.594561883256
N     -1.019038000203    -2.103796323852     0.564792691028
C     -1.972384058440    -1.130598983255     0.489887078853
O     -2.025395353421    -0.120713266497     1.234432968879
C     -3.041058619565    -1.314781095457    -0.515961014171
H     -3.995808328350    -1.390049697926     0.029892863653
H     -3.043570841845    -0.420585698436    -1.160527824885
H     -2.869044180050    -2.226725941722    -1.113124986841
N     -1.023807324920     2.013940850267    -2.643608479944
C     -2.148297610640     1.955528947282    -3.420444016611
C     -2.545284757873     0.751150719006    -3.975977716588
C     -1.808589925977    -0.395127374451    -3.762330247034
C     -0.687780041386    -0.311023743838    -2.977479762203
C     -0.326285753163     0.952722686161    -2.439353799785
H     -2.729925433075     2.853525340841    -3.592673442928
H     -3.432359781811     0.717429995762    -4.586450195536
H     -2.113116987883    -1.342553481940    -4.198891182069
H     -0.076645800193    -1.168574392677    -2.774002851619
O      0.805802262369     1.013261192486    -1.712558863385
H      1.116259387827     0.161514198653    -1.249073205579

