# STO-3G

title

0 1
C      0.102855664306    -3.291559518504    -0.203771170865
C     -1.158582138541    -3.590654660573    -0.786388753874
C     -1.340067986162    -3.486320143716    -2.168804150821
C     -0.270107157939    -3.069815890473    -3.005204158454
C      0.982494638141    -2.784836166846    -2.453799969476
C      1.184293910057    -2.899066345195    -1.046734505334
H      0.289366572575    -3.434708539130     0.856926199582
H     -1.976328947096    -3.917420290167    -0.148913153469
H     -2.304221803855    -3.726367322542    -2.610722849781
H     -0.425482547560    -2.990950967208    -4.078374693512
H      1.814769450636    -2.502364474432    -3.093174565869
H      2.188454734128    -2.838650249676    -0.637802087478
C     -1.793896936425    -1.299776485315     2.293219874398
H     -2.579597760718    -2.049872133706     2.376257138270
H     -0.773080949436    -1.678754834113     2.271625586995
C     -2.044038277090     0.036731916475     2.268604927809
H     -1.219159376104     0.730029272736     2.173378588485
C     -3.383104108195     0.648246781849     2.329795901661
O     -4.407319058124    -0.088623825189     2.304892269784
O     -3.490200306285     2.043520711684     2.468183062592
C     -4.822692980039     2.572721755377     2.458985501677
H     -4.779242295607     3.677458323307     2.567866324405
H     -5.332449615754     2.335988348237     1.497564430486
H     -5.417354411343     2.161799674735     3.306047997421
Pd     0.588211105343    -0.858089240518     0.079184530733
C      1.890000245256     1.512850753745     1.000676324044
O      0.635976431231     1.063478827335     0.720636651785
O      2.144536168404     2.697151374965     1.279161325953
C      2.971575427096     0.382145478351     0.949528167621
H      3.713729508774     0.604182183950     1.727093292832
C      3.677196313969     0.342042951016    -0.387295187170
H      4.435028816598    -0.468510653094    -0.381997030828
H      2.944207716088     0.141280565604    -1.194829987833
H      4.182174168075     1.311611717332    -0.581709246011
N      2.283694397869    -0.906249651521     1.124609282012
C      2.331891504867    -1.757998312005     2.168415651243
O      1.471619135801    -2.665032496468     2.385697798897
C      3.487697806288    -1.658839365837     3.089818512413
H      4.414511416426    -1.725787056835     2.495375116893
H      3.416016348837    -0.706946690800     3.641110185605
H      3.441714126923    -2.499833319752     3.806631247169
N     -2.534273521508     1.453275585394    -0.705959452186
C     -2.741760763413     2.714743365356    -1.195617919970
C     -2.001353063456     3.165059320333    -2.278114440504
C     -1.045458405195     2.352309344951    -2.857769300004
C     -0.859460557358     1.095068658702    -2.338271742214
C     -1.651890070362     0.711518952178    -1.238365598541
H     -3.487157754820     3.354446133369    -0.737751009751
H     -2.167687267178     4.159835217958    -2.656355532284
H     -0.458308795543     2.699499473629    -3.703481495583
H     -0.148582456161     0.403576086414    -2.738362029875
O     -1.388357524079    -0.548285508640    -0.747406166939
H     -1.962399858375    -0.740966641511     0.039782412116

