# STO-3G

title

0 1
C     -3.065336086941    -2.354866990273    -0.265864061841
C     -4.344367604335    -2.192830961150    -0.836844645823
C     -5.366114956765    -1.570782711145    -0.094870397532
C     -5.118832471480    -1.098282173434     1.214383949295
C     -3.847193306639    -1.261093511500     1.783393653775
C     -2.805941483781    -1.894719006489     1.051804315889
H     -2.276589592632    -2.855874575245    -0.819689837727
H     -4.548119340834    -2.567638635090    -1.836825985364
H     -6.356612087063    -1.456428804809    -0.529821976118
H     -5.916879435866    -0.622929599203     1.779125030415
H     -3.649279203449    -0.933015326524     2.800959872254
H     -1.893395149648    -2.190245378171     1.601772881739
C     -2.301975085245    -0.405799357300    -3.209621706360
H     -1.635529416622    -1.241969682901    -3.010162568563
H     -3.364894281292    -0.617671984377    -3.110484945857
C     -1.851834161086     0.827053478672    -3.554188519734
H     -2.546671424045     1.643469512956    -3.690469204999
C     -0.433577366337     1.181412034786    -3.735531370406
O      0.444456105246     0.275912333127    -3.679822452858
O     -0.119595335865     2.476728451863    -4.180828404637
C      1.278426162865     2.777588633229    -4.290468845215
H      1.403266836022     3.825046775575    -4.638175661311
H      1.780774692086     2.683026519911    -3.301347403937
H      1.774765912544     2.103673837499    -5.024448377345
Pd    -1.250698449400    -0.277862611583     0.239665881254
C      1.251370256095     0.840473585315    -0.587666334848
O     -0.076173712669     1.126453485078    -0.578817719322
O      2.112641885815     1.664737892439    -0.945767478183
C      1.587893595673    -0.608455886240    -0.137590752557
H      2.563401560831    -0.552444499300     0.361631166917
C      1.706656066040    -1.542812124624    -1.323772475329
H      1.988253260060    -2.559384178671    -0.984248234998
H      0.733539130442    -1.599783424987    -1.851701549795
H      2.476671439867    -1.168127038704    -2.030960035414
N      0.504763409875    -1.114577637541     0.732152724215
C      0.629304424843    -1.901260966821     1.817371292279
O     -0.341225861857    -2.326617022020     2.517687763837
C      1.992058034640    -2.307869049090     2.242034646636
H      2.478257660005    -2.847617725746     1.413597425426
H      2.550190751082    -1.403705831506     2.535390584046
H      1.905334796031    -2.980026891446     3.116210601468
N     -3.139692048238     3.033974554969    -1.158485097955
C     -3.231413226048     4.359280706627    -0.826452482130
C     -3.216775910537     4.739921928868     0.506453176143
C     -3.100667788306     3.790111059707     1.503489763208
C     -3.008290645906     2.470878061137     1.136067605915
C     -3.029464360714     2.163066441277    -0.238749932247
H     -3.319080775009     5.105846048983    -1.607107138951
H     -3.287132278842     5.784567688809     0.760150873632
H     -3.084907494638     4.080343518871     2.550557882088
H     -2.925088414341     1.679799373577     1.851170195458
O     -2.916738669181     0.826956248414    -0.535093803652
H     -2.856647234890     0.680537167610    -1.513633671757

