# STO-3G

title

0 1
C      1.763498158323     2.786200096244    -1.056271733235
C      3.139428453491     3.103509900400    -1.097532435110
C      3.617359677726     4.064709201609    -2.013120445500
C      2.727230921934     4.722407859316    -2.884519458056
C      1.354177169382     4.412590917722    -2.837514955867
C      0.871770079146     3.447085219319    -1.928658015631
H     -1.592762685517    -2.152759753010     2.325971998767
H      3.841065207241     2.608866182076    -0.427567540186
H      4.679573841700     4.300633878007    -2.038780414274
H      3.096274950429     5.469669552473    -3.583322202816
H      0.655878259746     4.922519524861    -3.498918305614
H     -0.192823350361     3.220734108366    -1.905091831234
C      1.382092044577     2.177259659667     2.246804721900
H      0.767081547261     1.457704344028     2.774898863353
H      2.437553779268     2.197612112462     2.497393364852
C      0.801538347855     3.194642537848     1.500951733141
H      1.388876100866     4.034572308480     1.169399858488
C     -0.638077806927     3.296674225368     1.224763296395
O     -1.103045693694     4.425221639789     0.918339743347
O     -1.268367483489     2.121861352390     0.777092275396
C     -2.569367862371     2.286384107216     0.194788956535
H     -2.950416496178     1.297663023224    -0.141336169765
H     -3.283920842628     2.707421014644     0.937548983322
H     -2.526736432139     2.954247963645    -0.695217918884
Pd     1.203643975763     1.281846624426     0.148867081481
C      1.297755450780    -0.984329310774     2.397960975822
O      0.746577417696    -0.471728071021     1.295521109943
O      2.485767272004    -0.823247609951     2.743670831630
C      0.294367934519    -1.782533013932     3.289564391403
H      0.478928615283    -1.440307722748     4.314123267528
C      0.528599284449    -3.276135770782     3.223934714463
H     -0.172460147936    -3.790536964733     3.913457169689
H      0.344307852316    -3.635171920113     2.190777827136
H      1.571116461373    -3.514569689135     3.520424645597
N     -1.097405940466    -1.513812312932     2.936357532956
C     -1.629509263948    -0.282127193895     3.156789580828
O     -1.008007427146     0.678428154773     3.674853117692
C     -3.042495730501    -0.118158559406     2.761610856659
H     -3.350326612935     0.919793480590     2.973750506643
H     -3.113168184054    -0.340908822453     1.684197717136
H     -3.644716512982    -0.833606747217     3.347247154170
N      0.656513738110     0.111027058855    -1.552859933681
C      1.231625889844     0.287451341965    -2.785712971185
C      0.646721363275    -0.260065469308    -3.909139870266
C     -0.508795179088    -1.000694321083    -3.807615458465
C     -1.048724552552    -1.192581232420    -2.564488277294
C     -0.417935104409    -0.627744637167    -1.434575779342
H      2.146976983959     0.857976458199    -2.885617177259
H      1.103913899940    -0.104213851569    -4.872667190668
H     -0.971880305385    -1.434804839909    -4.689821848931
H     -1.929657298900    -1.783439368478    -2.411854807531
O     -1.002385686502    -0.923559406893    -0.288570216979
H     -0.358221739964    -0.740160220139     0.557050362726

