# STO-3G

title

0 1
C      1.604426069957     3.006958224972    -1.618124611246
C      2.960612571444     3.320840753595    -1.858367073090
C      3.305108813040     4.255530082102    -2.858442482646
C      2.302352143826     4.884384460668    -3.620650230598
C      0.949429552075     4.573395634277    -3.381202021793
C      0.599655555653     3.636741473065    -2.386356816097
H     -1.043890990911    -2.030162334312     1.350524448369
H      3.752841654632     2.840666431391    -1.286522903742
H      4.352833411227     4.490382097103    -3.036238431114
H      2.569675070102     5.607937136258    -4.387354231170
H      0.166285999424     5.056501199585    -3.962723218853
H     -0.451153071998     3.405196384835    -2.216932704334
C      1.987310068635     2.832419764904     1.425699904361
H      2.150331296317     2.090201918678     2.201896817762
H      2.869814582558     3.255474424398     0.958018397247
C      0.733253861992     3.389605701037     1.165727396498
H      0.644886727421     4.206528508048     0.465718234081
C     -0.478778287788     3.146845450077     1.968217774121
O     -1.559708009840     3.666789094124     1.587441870045
O     -0.404754712304     2.370987063368     3.135455799818
C     -1.624781534357     2.240171187175     3.878555824578
H     -1.458374807427     1.568906872744     4.749560278137
H     -1.966809255064     3.228598258786     4.258067560389
H     -2.426877627944     1.787919396071     3.252583844980
Pd     1.109570343699     1.634089453219    -0.250652582177
C      1.007367699372    -0.340455043282     2.321342653998
O      0.464196110163     0.189447219184     1.209828280193
O      2.117060955325     0.003933747650     2.782410778889
C      0.129505089831    -1.417595858560     3.021519855338
H     -0.138742219889    -1.016692733236     4.006329961995
C      0.873971315008    -2.720940826029     3.212897792228
H      0.232562565981    -3.431243950540     3.774713185007
H      1.108049564677    -3.160507246604     2.222404158582
H      1.811804703472    -2.551836783912     3.781645404203
N     -1.108072278564    -1.699190804624     2.307707742932
C     -2.314779512932    -1.292293687229     2.792175213258
O     -2.491482399454    -0.735233971686     3.900502855817
C     -3.471970811760    -1.558818531950     1.913405202328
H     -3.519318996358    -2.646733926024     1.741118177394
H     -4.386781339247    -1.200752564312     2.415589001521
H     -3.311427214924    -1.020850267472     0.962436513842
N      0.614035153250     0.246156657949    -1.803246416407
C      1.202552102273     0.304971997077    -3.042376500810
C      0.714990140441    -0.458479890792    -4.082976257767
C     -0.360845250682    -1.295301121853    -3.895013138195
C     -0.919309020002    -1.360231638317    -2.648029505334
C     -0.390258241816    -0.572318961673    -1.603131792589
H      2.060416077848     0.942419580603    -3.212965767329
H      1.184330641881    -0.395758455470    -5.051285011109
H     -0.748711385954    -1.897991640222    -4.712073620705
H     -1.745472171374    -2.006403112502    -2.426691173116
O     -0.983123934215    -0.742974084943    -0.443919374547
H     -0.438927744695    -0.315036486103     0.420371656154

