# STO-3G

title

0 1
C      1.122010908520     3.003382520932    -0.613771439026
C      2.248324877434     3.375745956955    -1.379454546777
C      2.266940325920     4.612700778562    -2.057812402273
C      1.160349187872     5.480216447932    -1.984651275790
C      0.035274825684     5.108610669621    -1.223940377175
C      0.014138884399     3.876865228858    -0.536187834001
H     -0.804116729073    -0.296781053289     0.107295889596
H      3.106791969838     2.710705758536    -1.460602998788
H      3.142134457727     4.891161999150    -2.641567440137
H      1.176087332696     6.432703512905    -2.508998410663
H     -0.822528331888     5.774863465214    -1.156338733925
H     -0.863310229417     3.618933870214     0.054501628513
C      2.223450575114     1.769046027269     2.080702885574
H      2.490889752049     0.799665211485     2.490670371013
H      3.024834426001     2.357916994659     1.644509712956
C      0.957559818626     2.325025360425     2.259056445939
H      0.778614346025     3.332782388568     1.919989472805
C     -0.095313221250     1.783966532967     3.134658754401
O     -1.183507050319     2.411438541557     3.208875519315
O      0.142714933057     0.623879348642     3.888529936578
C     -0.874581526962     0.272200238624     4.837820638452
H     -0.588895771940    -0.671745461490     5.350541497240
H     -0.988534194284     1.067568099496     5.607979288023
H     -1.855406647901     0.108164893019     4.337057945155
Pd     1.093717361155     1.197054059472     0.249065731791
C      0.655345863058    -1.703245068815     1.839922901341
O      1.320927279106    -0.811820502420     1.064559523570
O      1.224640050580    -2.502194390027     2.606041631060
C     -0.888723182016    -1.723124813159     1.666370291288
H     -1.349162179340    -1.698972081971     2.658427115093
C     -1.344287602708    -2.990077662106     0.971049632938
H     -2.453088029103    -3.007594381282     0.923391411098
H     -0.941804653864    -3.009360705879    -0.062211239761
H     -0.993098312231    -3.884169858259     1.527347645225
N     -1.380322152047    -0.581767217361     0.892153203997
C     -2.519789677059     0.073621667117     1.242612332183
O     -3.248733516231    -0.241805126657     2.211849554056
C     -2.905009256144     1.234137076491     0.408336553167
H     -3.916762541559     1.032102557418     0.018382520448
H     -2.926476650872     2.115717244847     1.072127526365
H     -2.198246103253     1.380720273303    -0.424527925515
N      0.932256551676     0.307409322329    -1.672657180833
C      0.241803500522     0.899584238359    -2.698247553445
C      0.436471622072     0.482087572891    -3.998271662045
C      1.316073466092    -0.537595213496    -4.283888771905
C      1.984493417475    -1.128880206140    -3.245773180097
C      1.758585641089    -0.684522506784    -1.925743779234
H     -0.460535005534     1.697824207321    -2.490598884560
H     -0.108961132579     0.960651098118    -4.795253800841
H      1.470864061495    -0.869537390461    -5.307186433605
H      2.672549839473    -1.936640847060    -3.399018449682
O      2.436131048452    -1.332695418749    -1.012883050151
H      2.095675854801    -1.176529144978    -0.001229113888

