# STO-3G

title

0 1
C      1.593336769061     2.664498210026    -0.657714498891
C      2.922311798630     2.361295130345    -0.283191512686
C      3.931277017968     3.341275036473    -0.385543074472
C      3.624606300501     4.629763500741    -0.864836486607
C      2.301913846678     4.933523580577    -1.239641620398
C      1.287743977863     3.957439548518    -1.136335135924
H     -4.520446001068    -1.476305195188     1.906155176143
H      3.174984403492     1.371354805337     0.094611063904
H      4.949066692522     3.095263203622    -0.087844770748
H      4.403229448833     5.385186078667    -0.942557969933
H      2.053807518355     5.927132202270    -1.608189818181
H      0.272161741059     4.214107422913    -1.431268424449
C     -1.165922119913     2.426998839013     0.774196381787
H     -1.053872485635     3.488003221074     0.573897966405
H     -2.103128173504     1.968820584215     0.469189300587
C     -0.279958044385     1.748251177339     1.616370497793
H     -0.498831938535     0.733827457642     1.924959305000
C      0.818101351107     2.398808303411     2.354121064489
O      1.682157430858     1.678032739490     2.917881803297
O      0.958538223043     3.797348907897     2.292397332270
C      2.137053178325     4.337099977654     2.905549409409
H      2.139387268678     5.441703314450     2.787772786015
H      2.162173489513     4.099575562972     3.993158726220
H      3.053878780627     3.936716010629     2.416817514176
Pd     0.185917765818     1.250525664394    -0.587123083816
C     -2.492658899777    -0.515830477282    -0.058804434909
O     -1.235104151822    -0.388350555044    -0.469587425543
O     -3.385036242416     0.353922654246    -0.196863034936
C     -2.774676832449    -1.837581318852     0.720616444073
H     -1.815721721086    -2.285701930937     0.997198199580
C     -3.579865961600    -2.830662270804    -0.087639723888
H     -3.753517192158    -3.744108020210     0.518111579878
H     -4.560704224952    -2.384181072380    -0.352509413673
H     -3.032537237545    -3.104159908625    -1.012962631454
N     -3.510965242739    -1.522950567348     1.943257779823
C     -2.855103085990    -0.942026190533     2.981014372758
O     -1.628566660500    -0.676558675472     2.981720568361
C     -3.680240285100    -0.608598018235     4.158926592883
H     -3.031156165718    -0.156787135356     4.929243103233
H     -4.455141844285     0.105668685134     3.834592926057
H     -4.136948719017    -1.541627398464     4.531421798629
N      1.221489452001     0.137455758601    -2.079382864276
C      1.965724052848     0.757733350812    -3.051076503306
C      2.813702346422     0.022101941223    -3.852811929219
C      2.921395566313    -1.340792957240    -3.695179589741
C      2.151092426656    -1.945387917279    -2.739010942822
C      1.284615406085    -1.165217112217    -1.943662457619
H      1.890405777581     1.828439503489    -3.196904375943
H      3.399431421503     0.524599307536    -4.605284825615
H      3.592046143482    -1.923318342693    -4.321422253102
H      2.175109484821    -3.004691683701    -2.576163310206
O      0.570728964957    -1.859192260908    -1.086476458901
H     -0.263909466220    -1.326333896022    -0.680078937112

