# STO-3G

title

0 1
C      0.946643692671     3.049099010566    -0.389301581431
C      2.276966305952     3.214835963023     0.051374602314
C      2.880938480449     4.489581333048     0.014549831057
C      2.166063594944     5.603190748744    -0.467194009200
C      0.840137235528     5.438001711977    -0.911902060890
C      0.229376218198     4.166751676085    -0.873883708200
H     -2.501030740379    -3.201827837867     2.345246367054
H      2.847957996509     2.363185382284     0.416697943108
H      3.906244156802     4.606750210390     0.360644903363
H      2.635171681942     6.584072316043    -0.493722779438
H      0.277948521350     6.292253093609    -1.284380522371
H     -0.799911003859     4.061043422800    -1.215466214497
C      0.004861977840     1.131239023108     1.800983026170
H      0.792623327593     1.746521577066     2.225912593485
H      0.153378489034     0.057302373324     1.889486068361
C     -1.220641824069     1.676708089087     1.404559250785
H     -2.031042088232     1.019046498436     1.116090832101
C     -1.594684488711     3.087012197619     1.609504139398
O     -2.629046469359     3.526449634039     1.043073138444
O     -0.726890626474     3.940559448404     2.313623671068
C     -1.119338000755     5.317975019437     2.385139934821
H     -0.356610188795     5.887074687824     2.958779865325
H     -1.187507172828     5.763081696433     1.367035455334
H     -2.099030366621     5.424292194584     2.903627818661
Pd     0.094825325173     1.246664524893    -0.438854477787
C     -1.663016569421    -1.424937570765     0.189683436269
O     -0.719793518490    -0.781539060864    -0.492707867769
O     -2.770046751146    -0.937440763372     0.519797091408
C     -1.254366994055    -2.857736426428     0.653802984692
H     -0.177889211691    -2.984557012505     0.509576187471
C     -1.993069287960    -3.944058431795    -0.095794783873
H     -1.673467170831    -4.936792132290     0.283337131034
H     -3.084865673172    -3.832013756594     0.069583909546
H     -1.772460821181    -3.878154314017    -1.180886476869
N     -1.546030941264    -2.998097667576     2.080927685216
C     -0.687755584234    -2.466644508726     2.991321376845
O      0.371094010543    -1.860969729051     2.688955539520
C     -1.037914940923    -2.618307550855     4.419561734271
H     -0.197380020964    -3.133163947530     4.913652882202
H     -1.169994176430    -1.606458276144     4.836089357834
H     -1.964690917103    -3.207667657505     4.534924419699
N      1.199672101306     0.768685744867    -2.206815891549
C      1.580113453715     1.728500853086    -3.110714206816
C      2.516727889819     1.438257343167    -4.081227231019
C      3.077607575385     0.184453145596    -4.162475873800
C      2.667601327135    -0.767517906703    -3.269027669885
C      1.698621645508    -0.441323260297    -2.296048851977
H      1.143879832557     2.718258857901    -3.074103613091
H      2.810858221569     2.205373504372    -4.778990960624
H      3.818447920848    -0.046898141213    -4.923351492172
H      3.052621457313    -1.767825619832    -3.288176405960
O      1.362560442111    -1.442252200169    -1.515953350709
H      0.457092294732    -1.278946434890    -0.960864162209

