# STO-3G

title

0 1
C      1.613465390535     3.126251262207    -0.703831841224
C      2.980477949315     2.973637194270    -0.382689528979
C      3.901073694666     3.999345418934    -0.684999141449
C      3.467299506929     5.180603358647    -1.317062180068
C      2.105776154833     5.333783146138    -1.643083086874
C      1.180435792761     4.313976385683    -1.336586202546
H     -0.727005464263    -3.075269719320     1.041420706505
H      3.336316750403     2.061415762172     0.093782388822
H      4.951076707776     3.871894134260    -0.427749887033
H      4.178247956867     5.970371907818    -1.549137766098
H      1.759902450294     6.244149951052    -2.129331994639
H      0.131408609172     4.453695318047    -1.595189834852
C      0.213681651260     2.111900811424     1.830998551955
H     -0.127221039107     1.194459463532     2.305635276483
H      1.252979516251     2.380880425271     1.998312945355
C     -0.653426342166     3.014342169875     1.212586749770
H     -0.264228456065     3.960462510816     0.868623930947
C     -2.124621195638     2.952890124650     1.279109346991
O     -2.778190737564     3.822137417397     0.644128061396
O     -2.743868319054     2.116014382144     2.223549871414
C     -4.174031542331     2.202835961796     2.294489449357
H     -4.547957767446     1.489045490360     3.058884993324
H     -4.494435955219     3.227754138062     2.587938955257
H     -4.635778997221     1.936324439553     1.316406019439
Pd     0.318463890576     1.640719552927    -0.366702742754
C     -2.145383712415    -0.390459740662     0.332870816827
O     -0.875249149131    -0.083797715989     0.059667743296
O     -3.139686297830     0.245711758640    -0.070190557874
C     -2.300759293197    -1.685157259490     1.198471637154
H     -2.817432817168    -2.416970515247     0.563405411552
C     -3.163832319232    -1.452622685021     2.422333736427
H     -3.218517275391    -2.383886879796     3.022815356324
H     -2.730224536831    -0.644519048068     3.046449849423
H     -4.188192069246    -1.157313083864     2.115274667620
N     -1.024111546358    -2.284351356355     1.600312206385
C     -0.111771197302    -1.740682252510     2.452458536589
O     -0.238468484556    -0.657025841263     3.070498991404
C      1.122070680877    -2.533886381548     2.641639313006
H      1.617790096707    -2.631834027672     1.660471782179
H      1.775922728829    -2.007091445766     3.357280158843
H      0.834923783638    -3.524185521723     3.034895472807
N      1.267658853238     0.493801059745    -1.896495034425
C      1.803321116723     1.083738332930    -3.013072283105
C      2.626886272389     0.361544666313    -3.852138047341
C      2.913202958687    -0.958759567462    -3.587934249704
C      2.349841019253    -1.535314288644    -2.481489002639
C      1.503029618327    -0.770124746250    -1.651387508034
H      1.583024970052     2.119333725937    -3.241767884688
H      3.047169222301     0.839904741163    -4.721815157067
H      3.561073254670    -1.531395239303    -4.246453618005
H      2.514251197796    -2.564023822185    -2.229468630109
O      0.993345397954    -1.433178144901    -0.634392828373
H      0.147166812331    -0.929811402299    -0.178449499468

