# STO-3G

title

0 1
C      0.783194784887     2.625914794369    -0.071575261763
C      1.976516812517     3.326678188836    -0.344541663431
C      1.949712589150     4.727124443364    -0.515152270111
C      0.734675825468     5.432777665722    -0.423606621510
C     -0.457073849211     4.732323350623    -0.156229899426
C     -0.436214335211     3.332861258329     0.021996230766
H     -1.241279543041    -1.319348065140    -0.108141475067
H      2.922985973548     2.796118342638    -0.432713355009
H      2.876627586221     5.258610482065    -0.721361811862
H      0.717920785728     6.511818516103    -0.556860628888
H     -1.400925507921     5.268085679135    -0.077199676661
H     -1.367514444210     2.814193420632     0.244317919968
C      1.927924777906     0.540104473660     2.030799374623
H      2.654739355853     1.346396067575     2.046667965925
H      2.320683603134    -0.462532416660     1.890761410214
C      0.598597459768     0.740899912727     2.400122370993
H     -0.069756642713    -0.099925492473     2.513035466024
C      0.080441586742     2.012821747921     2.934524130737
O     -1.165488992650     2.174863103747     3.003075401896
O      0.971548266271     3.071494802093     3.183962053669
C      0.376565070297     4.311688768396     3.589701860714
H      1.175796437501     5.065370972150     3.756402619554
H     -0.303616459468     4.701123696719     2.799208387372
H     -0.190895284663     4.187159434622     4.539768377353
Pd     0.816043412470     0.634498130964     0.078763538499
C      0.802878144234    -2.540142753308     0.998241655014
O      1.033734454178    -1.555215986702     0.106138961992
O      1.687425692081    -3.281599338518     1.467451940792
C     -0.691195294696    -2.688020614567     1.392921161767
H     -0.771643335398    -2.656544599180     2.484879808353
C     -1.269339866685    -4.001439534165     0.911515123479
H     -2.319546290796    -4.091899722277     1.259005829460
H     -1.257432950678    -4.026045481915    -0.197251458109
H     -0.680532477512    -4.852799142575     1.312224594868
N     -1.498103754325    -1.605356631276     0.830577542089
C     -2.364704710348    -0.895447854651     1.601008692079
O     -2.526130170580    -1.080949797416     2.831419989749
C     -3.159206868008     0.151310366804     0.921804310833
H     -4.221364883995    -0.120492627310     1.040963888003
H     -2.959955175654     1.104744753910     1.439008404624
H     -2.900593742007     0.216189013844    -0.148848613769
N      0.825709741436     0.492258720069    -2.040198213195
C      0.182900107560     1.397946855394    -2.844652054492
C      0.478648406140     1.466220708271    -4.190170449213
C      1.414347992080     0.624509449199    -4.746650575307
C      2.030341327042    -0.288298694512    -3.934200128434
C      1.698757336383    -0.341148510326    -2.563206167044
H     -0.566489533751     2.059728550654    -2.430071766955
H     -0.030257790512     2.187865787269    -4.808146983067
H      1.650721496030     0.676441145707    -5.806225055584
H      2.755332789631    -0.983900027511    -4.308160548424
O      2.332710058140    -1.268942685179    -1.891802848184
H      1.907077956210    -1.501964244641    -0.926677401838

