# STO-3G

title

0 1
C      1.539432675027     2.195772526262    -1.272565746932
C      2.800094080346     1.560939093174    -1.314691619318
C      3.734422828711     1.929334223392    -2.305754083133
C      3.418478786006     2.925696656298    -3.250249550308
C      2.161908060828     3.559975776096    -3.200599604788
C      1.220763211470     3.199068233678    -2.212802011827
H     -0.752728185436    -2.375754018772     1.128676747100
H      3.050351447404     0.792337348154    -0.585373696672
H      4.706754307196     1.440864153685    -2.333502963820
H      4.143786751717     3.209079088608    -4.009774326785
H      1.912252791663     4.336188157952    -3.921945659632
H      0.252311942856     3.696938886288    -2.185740191343
C      1.446800616893     2.594733979657     1.710371741180
H      1.159385193202     2.101319945917     2.631425477131
H      2.460163850796     2.427029731448     1.362896308409
C      0.642788127948     3.573433221263     1.118630161647
H      1.024460260193     4.142146026418     0.285327615860
C     -0.622781285341     4.082486116098     1.676481951806
O     -1.338590482130     4.819262028200     0.948393029238
O     -1.007390448771     3.747118596053     2.982575724587
C     -2.302961774710     4.198422497995     3.397267334156
H     -2.488076895348     3.860106900269     4.439701901900
H     -2.362412200764     5.309850874090     3.374096065999
H     -3.097347843765     3.766283260106     2.747824970373
Pd     0.245839956138     1.576145113458     0.112350038167
C     -0.552356563165     0.302386839746     2.948720093622
O     -1.009762300922     0.866373962385     1.806237339693
O     -0.212465167354     0.948817886910     3.955833565983
C     -0.525464718316    -1.260207654473     2.914431391721
H     -1.560986518884    -1.596083951394     3.064019996673
C      0.339358500977    -1.859368234404     4.003604280742
H      0.323149292381    -2.966083129448     3.926733950999
H      1.383960964301    -1.503360635787     3.888629653687
H     -0.039454545118    -1.558984393905     5.002472140029
N     -0.084781800449    -1.795549974839     1.620247249114
C      1.065089392783    -1.441567467624     0.993552893741
O      1.868192801383    -0.563443747200     1.397709003090
C      1.360931604747    -2.180917631560    -0.251530905063
H      1.449983181775    -3.249182643968     0.009124163070
H      0.524278878279    -2.027178870569    -0.952034120291
H      2.306645197941    -1.807818685434    -0.682191522252
N     -0.810599668714     0.328438180866    -1.345770782476
C     -0.392273422101     0.206187234078    -2.650751997905
C     -1.173374613941    -0.447187515281    -3.580979724391
C     -2.386339953892    -0.985914114221    -3.226453536328
C     -2.785366125179    -0.872510379916    -1.925251513956
C     -1.960988635955    -0.205390913045    -0.991563709126
H      0.565302296103     0.589577109506    -2.969110500049
H     -0.825288002010    -0.532667571844    -4.597739738222
H     -3.005543877426    -1.498720608979    -3.957869787652
H     -3.711809500239    -1.285424648966    -1.577820398689
O     -2.444456022685    -0.200236332001     0.221986334752
H     -1.814908363941     0.265288434216     1.019660424994

