# STO-3G

title

0 1
C      1.209907918451     3.036459170798    -0.615580205589
C      2.355734792038     3.347986279224    -1.380364037229
C      2.445198367339     4.584312719404    -2.053685177943
C      1.389352509938     5.512786371088    -1.977662212016
C      0.244589473556     5.201587175112    -1.219738975847
C      0.152919827125     3.970152961303    -0.536591322891
H     -0.788120893463    -0.273812026409     0.203763979488
H      3.174865118614     2.635394712317    -1.464414894429
H      3.335084888817     4.814533691040    -2.636193221970
H      1.459102345925     6.464806157216    -2.498415166393
H     -0.575083284026     5.914128577247    -1.151054761968
H     -0.740214637205     3.760839204740     0.048772333130
C      2.205947523869     1.772803468087     2.108106526016
H      2.455780180211     0.799962500102     2.520625514027
H      3.023802631345     2.357616192602     1.697649306302
C      0.939880773769     2.337363342411     2.252549864038
H      0.777610270320     3.347494556525     1.912667995790
C     -0.143526454995     1.799512286495     3.092718203180
O     -1.239478792810     2.417581412476     3.111885559680
O      0.077426307558     0.661526758261     3.884556457607
C     -0.972132106183     0.322823047961     4.803076951468
H     -0.696663379549    -0.604049097268     5.351262759352
H     -1.124166334312     1.136432459788     5.547192396247
H     -1.930992179729     0.134410974340     4.269283804943
Pd     1.117798084350     1.226103238801     0.238957809910
C      0.718188997575    -1.661114720387     1.874320058099
O      1.331960310216    -0.792732435948     1.032539985360
O      1.332710670546    -2.390882976571     2.673511629747
C     -0.824605581032    -1.747751833033     1.727012997846
H     -1.271214967421    -1.747504941678     2.725527794197
C     -1.233937914051    -3.031670535076     1.033114648809
H     -2.341450954076    -3.100251977967     1.004320897236
H     -0.848781055142    -3.028254097571    -0.006978112447
H     -0.832660694193    -3.910896609180     1.579117071418
N     -1.367634608069    -0.625677179478     0.959575011238
C     -2.573202121274    -0.071931412952     1.254317334977
O     -3.330660452150    -0.452100934909     2.176783456455
C     -2.979975461291     1.050984125755     0.383411332097
H     -3.006522143855     0.683002118868    -0.655737866050
H     -3.981836317887     1.388985996577     0.702480735478
H     -2.248663355596     1.864293359220     0.508106928977
N      0.878168263160     0.360979589879    -1.680793089974
C      0.162181736932     0.982204350693    -2.670909722503
C      0.277073195071     0.560484008300    -3.979072115525
C      1.102958913662    -0.490887647585    -4.307589171050
C      1.796812719335    -1.110567948259    -3.303108863633
C      1.651054564416    -0.661602373702    -1.973441391946
H     -0.499380931380     1.805104209424    -2.428163797124
H     -0.287225190322     1.061700478447    -4.748518311792
H      1.195781789876    -0.825674981446    -5.337445630725
H      2.444677391655    -1.944106143476    -3.489705615039
O      2.341728261269    -1.340470379318    -1.092933465110
H      2.051047411408    -1.175132080794    -0.069726022283

