# STO-3G

title

0 1
C      0.775007231056     2.242604016941    -0.828516561348
C      1.954516957362     2.789400846369    -0.282108960540
C      2.736687191028     3.678613386054    -1.049536154416
C      2.351339353255     4.021351948132    -2.359926558818
C      1.179143913377     3.464889042102    -2.907561600305
C      0.392792731345     2.574321026517    -2.147179536870
H      0.119361261809    -0.375783386602     4.299822065113
H      2.278842910889     2.505046061482     0.714771246703
H      3.644792586085     4.099132446190    -0.621527354391
H      2.955113484467     4.711068280340    -2.945388665021
H      0.875082674654     3.719599158762    -3.921031835247
H     -0.508238346962     2.148735238515    -2.586338330808
C     -0.903925579936     2.372060137225     1.817009582381
H     -0.120469840491     3.109635539131     1.961550713449
H     -1.054639316028     1.648384495943     2.611877581267
C     -1.867960576565     2.508118751193     0.812161789592
H     -2.700278171388     1.818386191405     0.794820651011
C     -1.982945421435     3.676531668150    -0.079162892479
O     -1.245855261418     4.680930251425     0.104109908000
O     -2.887113005050     3.615608270589    -1.152148665604
C     -2.894024566008     4.752629949201    -2.027154625692
H     -3.639291184010     4.591772976447    -2.835749952727
H     -3.176406830859     5.676850428340    -1.473298156493
H     -1.894086529133     4.896068735803    -2.497427938573
Pd    -0.328161409080     0.944172305398     0.215890155264
C     -1.617138210450    -1.140102058465     2.300835301264
O     -1.779002600394    -0.404217240246     1.186908604724
O     -2.533496585219    -1.405179825315     3.109584454795
C     -0.136526198814    -1.572028839902     2.569406608956
H      0.404001782488    -1.634113896500     1.621905583218
C     -0.023384002075    -2.887181460239     3.308182780494
H      1.046816877889    -3.133248046546     3.466704526880
H     -0.522407822039    -2.802292662946     4.296039731461
H     -0.503456714910    -3.696951981010     2.721463081990
N      0.517273902553    -0.533815131393     3.381950489380
C      1.523403214472     0.238273877712     2.901645808091
O      1.953706027562     0.196168957027     1.718988927880
C      2.135908549756     1.203637591897     3.840653950403
H      1.987970334618     2.217154056936     3.434233965996
H      1.678247402609     1.120014996585     4.841442169131
H      3.213332662343     0.971619370776     3.902961706625
N      0.338105616046    -0.626059371070    -1.028755703327
C      1.637590014880    -0.688967400404    -1.461302808394
C      2.010355273345    -1.651034917701    -2.378955734832
C      1.089989308503    -2.555538150852    -2.860933615303
C     -0.195460025852    -2.488360603631    -2.390784198429
C     -0.535845670039    -1.501379651780    -1.443023598147
H      2.372699591073     0.014512386614    -1.089368864717
H      3.032341671511    -1.686753384381    -2.719082283727
H      1.379473331498    -3.311374657738    -3.586198890458
H     -0.955192135196    -3.174081760972    -2.709415540740
O     -1.785662059047    -1.555015547668    -1.021624388306
H     -1.952807067430    -1.047177610153    -0.125186128182

