# STO-3G

title

0 1
C      0.788934157865     2.613538053952    -0.963604128675
C      1.745010219025     3.639231579692    -1.138794167466
C      1.534696789371     4.658188575576    -2.093210379922
C      0.369074175159     4.664714299622    -2.882138641995
C     -0.584719933422     3.641214125761    -2.715373999513
C     -0.374967570131     2.620020891020    -1.766385913323
H     -0.865662151196    -1.577318023620     4.112453222400
H      2.653189384702     3.660766480881    -0.538898187208
H      2.279672307971     5.442656447324    -2.214522855487
H      0.207818822106     5.450309678904    -3.617012644254
H     -1.487674449953     3.630517585698    -3.323431261548
H     -1.120833917733     1.833725651525    -1.660064426140
C      1.470822459157     2.465942663157     2.144941750150
H      1.975233463934     3.368669031182     1.817663148518
H      2.051099290728     1.725193889101     2.685172251859
C      0.085599815638     2.334414770665     2.083953367320
H     -0.368696282344     1.467201630175     2.537220238959
C     -0.837769203072     3.396393425297     1.650835799760
O     -2.075080584072     3.166768760241     1.663804618192
O     -0.324984430052     4.642460762106     1.250846642180
C     -1.270079225719     5.549614944457     0.667988653966
H     -0.748269670792     6.486187518181     0.376650733056
H     -1.722631091647     5.109673138203    -0.249792695378
H     -2.074246877393     5.807150408568     1.393900712790
Pd     1.056999465101     1.147661269865     0.376403191651
C      1.347776942099    -1.633066125015     1.758854548708
O      1.231011586864    -0.330584759161     1.895836197106
O      2.238715090351    -2.264197634530     1.134547838528
C      0.254076278950    -2.442771826149     2.556702274697
H      0.776809417986    -2.881557562937     3.416574681345
C     -0.352062831707    -3.577778563818     1.755614329531
H     -1.074278247696    -4.133756374616     2.388249170343
H     -0.886135137108    -3.180831770422     0.870516032241
H      0.442539634636    -4.274428792578     1.416944564655
N     -0.836399133581    -1.613220812394     3.102273251146
C     -1.671871580738    -0.823190586692     2.405734395139
O     -1.637986173187    -0.616349793784     1.162182883276
C     -2.768508439862    -0.167922527090     3.154621475916
H     -2.707525936374     0.919251643968     2.980368620999
H     -3.717030013195    -0.553320189484     2.745639807872
H     -2.710387966410    -0.386246463231     4.234872788438
N      1.363027311533    -0.138871720171    -1.220303724979
C      2.541089687609     0.016680312698    -1.900508021967
C      2.821493991317    -0.777931464751    -2.992220589000
C      1.927176555616    -1.742294196882    -3.398713926010
C      0.760590357534    -1.883016436876    -2.695542496618
C      0.511801976873    -1.052439845419    -1.581429306848
H      3.248838307305     0.774716617773    -1.586261394341
H      3.749840103376    -0.645779569871    -3.522361493564
H      2.142263631245    -2.376981328736    -4.254072799111
H      0.027315198298    -2.619854896928    -2.954534323002
O     -0.634777920354    -1.304288596697    -0.991946853955
H     -0.916596490036    -0.907538156689    -0.082179627500

