# STO-3G

title

0 1
C      0.591764952577     2.788915719814    -1.230008935071
C      1.711531345860     3.072114121515    -2.040359283043
C      1.611693425766     4.029351067505    -3.072790137329
C      0.399237309754     4.708495586787    -3.296207523768
C     -0.716975988349     4.421689838646    -2.485767551564
C     -0.626222056451     3.463468388260    -1.455533743282
H     -2.060413974566    -2.044768243246     1.132857768455
H      2.654261013934     2.549185387665    -1.887395181688
H      2.480405114220     4.241553834402    -3.693544502133
H      0.324831211573     5.450100833227    -4.088487704369
H     -1.659953179238     4.938870393675    -2.653624638735
H     -1.500232796587     3.231201796087    -0.852966210345
C      2.142849823431     2.523057236714     1.242526241480
H      2.708526001666     1.790648675718     1.814059983976
H      2.683763412277     3.053685904437     0.468764425612
C      0.891234405143     3.000592898713     1.708281836972
H      0.438503599418     3.854417433721     1.226627377503
C      0.359977536015     2.702310571687     3.049788909600
O     -0.800701489855     3.088770270106     3.341743515113
O      1.137039610171     1.963512584126     3.956481368023
C      0.559677961146     1.731713013150     5.248678607325
H      1.265048008868     1.128958908340     5.861455121219
H      0.368962030714     2.693099353877     5.776722271622
H     -0.389369672816     1.158980040555     5.164794504435
Pd     0.637573100194     1.388950890885     0.195953060685
C     -0.022688440192    -0.706821873246     2.597250076049
O      0.839028931799    -0.153545567493     1.734289153296
O      0.292393239393    -1.485773676494     3.523238033998
C     -1.510770718753    -0.336566864413     2.277786804783
H     -1.577804651123     0.735473437232     2.071117250942
C     -2.482275197541    -0.701119822489     3.378749248712
H     -3.512975919771    -0.432273081133     3.068160219189
H     -2.436353048711    -1.793799286840     3.566629380357
H     -2.230390910236    -0.157362517091     4.310296072161
N     -1.925345041833    -1.043653920283     1.058168683434
C     -1.985393857691    -0.454113374409    -0.151820530658
O     -1.644060243758     0.734623938666    -0.399952637004
C     -2.481153620684    -1.301259416065    -1.254062462639
H     -1.786003376059    -2.151278151289    -1.363852895668
H     -3.489778176160    -1.653043080950    -0.979738636503
H     -2.515879601570    -0.705758022729    -2.183379482724
N      1.147404018348    -0.144570577216    -1.287745483746
C      0.702572978133    -0.049296267491    -2.580528088265
C      1.228747675255    -0.875579054380    -3.553440941942
C      2.199068003742    -1.801321007619    -3.237199668888
C      2.613865631892    -1.889082113665    -1.934579472805
C      2.040558169771    -1.038700451227    -0.964916959804
H     -0.063348744186     0.671468446859    -2.841773322279
H      0.876248475065    -0.788448038404    -4.568025483930
H      2.617768909578    -2.452335845672    -4.000035594851
H      3.349492258990    -2.600555336437    -1.615674237528
O      2.486266085128    -1.232500194454     0.261472417959
H      1.896998633238    -0.796874908302     1.020249204387

