# STO-3G

title

0 1
C      1.606358532069     2.559308628816    -0.355105627034
C      2.753665120131     2.068125456092     0.308583481746
C      3.853268072662     2.917754725816     0.548490676744
C      3.820057652704     4.260454251143     0.123879876443
C      2.680246633943     4.749625859162    -0.541906088333
C      1.575041820085     3.904729933900    -0.781736709548
H     -3.482058394857    -0.471589115306     2.000421175748
H      2.796530172922     1.031979852299     0.641178954677
H      4.729072865240     2.527841190870     1.063972316542
H      4.669279981089     4.914370145687     0.308348611464
H      2.644608176596     5.785514399445    -0.873873457999
H      0.705818314056     4.304391148862    -1.300378881121
C     -1.458717274491     2.629349734595     0.258662012652
H     -1.186957279349     3.671096528419     0.125465922149
H     -2.312835945980     2.261491610947    -0.304868990561
C     -0.902304516960     1.867408341068     1.288890379864
H     -1.281121768292     0.873062478989     1.481168172744
C     -0.000639797891     2.399132392679     2.325555340288
O      0.482026996800     1.603510174492     3.172947714351
O      0.334764307332     3.764219187385     2.323468893229
C      1.341360137617     4.163647170453     3.263311874598
H      1.529118241505     5.253716816618     3.158939921985
H      1.011676422192     3.963158899751     4.307886687333
H      2.298507657777     3.629715501732     3.065668095422
Pd     0.084552376112     1.310873041131    -0.704408904019
C     -2.790450175331    -0.246033839735    -0.699481706495
O     -1.471921936290    -0.190732289491    -0.902761182414
O     -3.596898997367     0.665285812645    -1.008674531740
C     -3.200160104024    -1.487451468285     0.146765862567
H     -2.583019290836    -2.345945405367    -0.133317274194
C     -4.665694503982    -1.843519562793     0.040296226860
H     -4.879796099507    -2.720251665581     0.685689428336
H     -5.282885278018    -0.987260137261     0.382305810687
H     -4.922802894009    -2.088606224874    -1.010311065725
N     -2.897369939988    -1.164209826936     1.548992026212
C     -1.772936513402    -1.651718610593     2.155358994421
O     -0.928618860152    -2.381059373626     1.590359166334
C     -1.568699658506    -1.290778150531     3.576226156905
H     -1.539533696325    -2.230206326847     4.152552561114
H     -0.598100482804    -0.771855442222     3.652649321199
H     -2.382063193965    -0.642362050218     3.944684665437
N      1.281526103451     0.229013824476    -2.075964009949
C      2.239681387612     0.855022036156    -2.833294201355
C      3.124387696510     0.114611585003    -3.589151598580
C      3.058450710822    -1.259544502763    -3.599170557768
C      2.081511397463    -1.866075857515    -2.858402270801
C      1.183013715696    -1.080382296225    -2.104677798357
H      2.304554281403     1.935710157958    -2.850000997767
H      3.876303061566     0.620919313469    -4.172093698622
H      3.757234946665    -1.847518628754    -4.188386517181
H      1.966776724919    -2.931907827115    -2.831828550571
O      0.279067728180    -1.777309888943    -1.465033681318
H     -0.533740388475    -1.225478419483    -1.073885545575

