# STO-3G

title

0 1
C      1.331559706737     2.926486258620    -0.219248601974
C      2.732916295931     2.746264450445    -0.209673994543
C      3.591879075956     3.816236795780    -0.534579210398
C      3.062923821369     5.075843912505    -0.878726476384
C      1.667403370178     5.257965345355    -0.893854767396
C      0.804224010609     4.189972417550    -0.565593843066
H     -1.642065420097    -2.597685474726     2.251282052707
H      3.162836236736     1.779053823407     0.043430229762
H      4.669161699782     3.661424181542    -0.520361566132
H      3.726979980039     5.900237495556    -1.127920727779
H      1.245443625883     6.227402545526    -1.151985799129
H     -0.270646277526     4.361740404194    -0.576652534996
C      0.380455359693     1.953510674742     2.314695880431
H      1.006732770431     2.835123614826     2.390204238133
H      0.856374673880     1.007782707356     2.557237518512
C     -0.994528529031     2.037940863863     2.095965039261
H     -1.592290656373     1.139082789057     2.128384325292
C     -1.759146409498     3.295021438176     2.012760842437
O     -1.151316027277     4.397100302050     1.979371749593
O     -3.154705650676     3.227506360868     1.873162337424
C     -3.837943927490     4.484301619174     1.763426056836
H     -4.929817662020     4.301595009942     1.662921928345
H     -3.672021289164     5.106310760225     2.672298168887
H     -3.496053739343     5.044479649380     0.863695051222
Pd     0.069029121787     1.408324411039     0.142285248974
C     -1.415539966995    -1.227131454259    -0.408281005487
O     -1.383614072823    -0.159118008957     0.365868112230
O     -1.799928362024    -1.293591698493    -1.603335583598
C     -0.820254898923    -2.517085352370     0.297326233691
H      0.209879169483    -2.622830075430    -0.065358004584
C     -1.575099423137    -3.784487500006    -0.039836245774
H     -1.105240408550    -4.646978516946     0.476473157645
H     -2.627069866811    -3.689242823698     0.297057529679
H     -1.555292444894    -3.961187718298    -1.135229715356
N     -0.784789141296    -2.380524171301     1.758579203096
C      0.172912668894    -1.709218943385     2.411979196629
O      1.169140425304    -1.134529067710     1.880495994147
C      0.070701511293    -1.641352393359     3.886046467122
H      1.022245092565    -2.011958182464     4.303655091893
H     -0.093279389128    -0.590055928112     4.170070482387
H     -0.761498907515    -2.266828427362     4.255252583097
N      0.813746918459     0.533995033658    -1.582455049796
C      0.374072427778     0.998534445748    -2.792914711760
C      0.910250575667     0.494935973174    -3.959876404259
C      1.874407418307    -0.487087949697    -3.917233349424
C      2.280884698312    -0.946315024635    -2.691642383739
C      1.705290423045    -0.408780789891    -1.520936934359
H     -0.381986507106     1.774051200751    -2.830977817590
H      0.561982179859     0.869221143009    -4.908140808515
H      2.297784198739    -0.891604509859    -4.832624752979
H      3.019441806748    -1.716006169015    -2.591072735300
O      2.162979007196    -0.956334240879    -0.411004262425
H      1.680296364966    -0.886960495086     0.501967940386

