# STO-3G

title

0 1
C      1.423210938986     2.776543324299    -0.368326973177
C      2.733472157122     2.563643753752     0.115664091614
C      3.681472337642     3.607315767695     0.078533012179
C      3.330404539320     4.867792697250    -0.442680736927
C      2.024790604362     5.080906305735    -0.924727141302
C      1.071216079507     4.041127441509    -0.888051303298
H     -3.239418625112    -0.205332332948     1.938816331054
H      3.018191979994     1.597001764681     0.529536753704
H      4.685817940306     3.432137404192     0.459808721790
H      4.062010786550     5.671999273121    -0.470164280960
H      1.743215178311     6.052380781172    -1.326400595654
H      0.067915317135     4.226516885709    -1.267262826173
C     -1.431823695784     2.330716898198     0.866453785396
H     -1.412239173123     3.399305779761     0.680756793040
H     -2.301750771666     1.801609976758     0.492705362088
C     -0.548648314516     1.724868785506     1.763857270028
H     -0.680942190253     0.691942025669     2.054301627421
C      0.438921432926     2.462314863255     2.571697943909
O      1.362343101274     1.817395309506     3.133825320655
O      0.452200426866     3.868722106494     2.526974428782
C      1.541221601036     4.507502155024     3.206773478429
H      1.444512203673     5.609082821459     3.101599909207
H      1.532918972672     4.256000398107     4.291537325136
H      2.515678506469     4.203067517571     2.762494859029
Pd     0.095831574221     1.285136033320    -0.408440614860
C     -2.599091045598    -0.449392306491    -0.671653162983
O     -1.293647407351    -0.376065183115    -0.370148034842
O     -3.183938555259     0.281325359408    -1.498653368510
C     -3.323273042912    -1.482575110372     0.260713247153
H     -2.970247498408    -2.487178313423     0.000117032128
C     -4.829346821062    -1.453295357660     0.136923352700
H     -5.272223100715    -2.197580193368     0.830532291261
H     -5.204636286118    -0.445722086945     0.411241739782
H     -5.135144206310    -1.690248429500    -0.902900433728
N     -2.969565547325    -1.142393291881     1.642681168700
C     -1.958790677283    -1.632263139259     2.416558084134
O     -1.467554546552    -0.977773866050     3.368785386678
C     -1.476847202948    -3.003272024557     2.144465245024
H     -2.345183918405    -3.682451733197     2.173426574368
H     -0.972658622558    -3.016658593999     1.165739400593
H     -0.754631754144    -3.281610852632     2.933851589834
N      1.318097471339     0.206163924520    -1.772173323473
C      2.137842971091     0.839369046295    -2.672190476736
C      3.077332812357     0.119460413386    -3.381112187770
C      3.201684359291    -1.239446164121    -3.201628786925
C      2.356233374858    -1.856746420792    -2.319399263138
C      1.399066850588    -1.091728635155    -1.620002572035
H      2.051392618005     1.907024946884    -2.833644286667
H      3.721262573232     0.631558392060    -4.077586460489
H      3.944064485771    -1.809174061284    -3.754461569302
H      2.390486322963    -2.913876992076    -2.145788194948
O      0.619777199265    -1.798763766517    -0.828036257811
H     -0.248719386486    -1.288674063855    -0.515808897314

