# STO-3G

title

0 1
C      1.194510209320     2.700264025373    -1.288708176441
C      2.380643785686     3.153818865419    -1.901685659133
C      2.327197368249     4.216256610518    -2.831333109804
C      1.097551409660     4.824945041381    -3.145668050725
C     -0.083973221904     4.372416427440    -2.523701247623
C     -0.041162391170     3.312643932307    -1.594786863155
H     -1.230459097800    -2.014060818043     1.176506182268
H      3.338689457802     2.689463377060    -1.674462718749
H      3.244624639742     4.564047153548    -3.302638332928
H      1.060028771947     5.646838850499    -3.857142689113
H     -1.036251318659     4.849181672239    -2.749137151514
H     -0.953611551398     2.985131219522    -1.099373717979
C      2.373137064234     2.177382184748     1.611962100087
H      2.442568787265     1.428125996912     2.393578244899
H      3.277729403583     2.360857068542     1.037888559016
C      1.282052471310     3.030902942879     1.481550420391
H      1.339446509070     3.838621378508     0.771347496472
C      0.143961635067     3.139471274274     2.413834466984
O     -0.649439843359     4.107586804002     2.267831688505
O      0.115528617058     2.344919464712     3.572634997603
C     -0.984456827627     2.579908992908     4.462387249452
H     -0.907035605103     1.891829613177     5.331222939022
H     -0.967746374540     3.625518992624     4.844673591953
H     -1.953773302625     2.388909457795     3.946977993204
Pd     1.212549234338     1.155400072437    -0.028232893081
C      0.890105703454    -0.557514450373     2.716939175309
O      1.318335229042    -0.511238982986     1.438019991507
O      1.615093932473    -0.299556917308     3.697512803237
C     -0.621090495360    -0.926539304158     2.900566594623
H     -1.073662478597    -0.081881886332     3.428457659874
C     -0.808517288597    -2.171312936284     3.740211966675
H     -1.892239955797    -2.361621388262     3.884042027060
H     -0.357830906597    -3.040972241173     3.219824502863
H     -0.327087237034    -2.042066876124     4.731823863772
N     -1.331917405460    -1.117221726619     1.639366302798
C     -1.769522467726    -0.055166910761     0.910933908619
O     -1.605993981401     1.146676004176     1.239126612142
C     -2.494455894616    -0.349215559554    -0.345110733118
H     -3.500876057793     0.092423324889    -0.254995145139
H     -1.942820068239     0.123874302761    -1.173240225195
H     -2.574282616192    -1.438698231882    -0.509186505223
N      0.814278666728    -0.236003923872    -1.703399529718
C      0.739149055572     0.192358853345    -3.010859594150
C      0.443968126517    -0.691290838155    -4.028261939006
C      0.228976283631    -2.020931643525    -3.764535736882
C      0.320978815489    -2.440250452193    -2.469258872447
C      0.626552090564    -1.512964011473    -1.448030216271
H      0.904530454690     1.223459611868    -3.277884091740
H      0.385213506141    -0.329835685628    -5.042396004293
H     -0.003026204353    -2.720034970322    -4.563843885823
H      0.171122834942    -3.465691098408    -2.193339166715
O      0.684237092023    -2.057456871873    -0.259869805280
H      0.970157161235    -1.386611827737     0.578446584772

