# STO-3G

title

0 1
C      0.956319248164     3.050723534201    -0.377492071387
C      2.286741022364     3.212711796850     0.064319410518
C      2.892861195493     4.486567244030     0.032195767378
C      2.180047348977     5.603053828166    -0.445931822424
C      0.854019599682     5.441639033567    -0.891737218029
C      0.241129096648     4.171281271113    -0.858441540421
H     -2.484729028400    -3.239836200806     2.344084690930
H      2.856162035488     2.358855467108     0.426972576507
H      3.918212794572     4.600807429104     0.379159607409
H      2.650802054695     6.583245996234    -0.468810812391
H      0.293412372968     6.298143953003    -1.261432558643
H     -0.788185993031     4.068496704159    -1.200841130064
C      0.009730348887     1.127400016909     1.805255975418
H      0.797586216760     1.740602455069     2.233002493525
H      0.157344585337     0.053108585200     1.890776579808
C     -1.214987396221     1.675185431092     1.409548928106
H     -2.025706963930     1.019196904252     1.118314686532
C     -1.587998350004     3.085125517072     1.618839234695
O     -2.622153274235     3.526957202842     1.053868711738
O     -0.719499858478     3.936009317212     2.325292177314
C     -1.111134486149     5.313413564774     2.401253611593
H     -0.347858000551     5.880254027159     2.976406013194
H     -1.179403828145     5.761744290049     1.384572089618
H     -2.090566360123     5.418664357342     2.920447851859
Pd     0.101392091544     1.249975647693    -0.434023488654
C     -1.665245993421    -1.420853162620     0.179357263833
O     -0.717501110853    -0.776056359910    -0.495697901012
O     -2.770959084519    -0.931688894228     0.510671097716
C     -1.261452631224    -2.858562734330     0.633853838317
H     -0.186650807617    -2.990981247836     0.480552915065
C     -2.012293143034    -3.936961965948    -0.114964425451
H     -1.695477060054    -4.933359470546     0.256808012415
H     -3.102060467433    -3.819174704554     0.059646038470
H     -1.799946987105    -3.867061109736    -1.201449326216
N     -1.542756306508    -3.002046612396     2.061931353255
C     -0.687286977894    -2.472759011203     2.974142570672
O      0.375581720297    -1.869503727853     2.684255787057
C     -1.079725369013    -2.630253373494     4.388690567951
H     -0.303755544333    -2.172040012926     5.026143173856
H     -2.048201042335    -2.120977024380     4.527173255920
H     -1.171456506691    -3.709663713059     4.599844453748
N      1.206849546424     0.776142819118    -2.202871665173
C      1.590588135926     1.738549490606    -3.102625104579
C      2.527537467146     1.449827223136    -4.073270157387
C      3.085498279098     0.195007513035    -4.158798206150
C      2.672216373226    -0.759446572105    -3.269525659055
C      1.703026900855    -0.434688264068    -2.296275926146
H      1.156691964166     2.729204846364    -3.062666760161
H      2.824291783912     2.218954137901    -4.767702123983
H      3.826634031342    -0.035156906785    -4.919747018502
H      3.054919327096    -1.760575914543    -3.292091376359
O      1.363757949312    -1.437856392512    -1.520449544189
H      0.458479270072    -1.274361470644    -0.965163934138

