# STO-3G

title

0 1
C      0.242875952079     2.289630807086    -1.032436873086
C      1.008472077862     3.157863868080    -0.223530235857
C      1.501537925582     4.364671634192    -0.762701370270
C      1.239835083796     4.709608566342    -2.103034187381
C      0.484973497469     3.836507871745    -2.909273372186
C     -0.012468696007     2.627292628124    -2.378194862544
H     -0.632461605661    -0.891261297050     3.842315626493
H      1.229925557995     2.887305007531     0.804994161631
H      2.090890202100     5.029840850189    -0.134017398689
H      1.620376262451     5.641803197264    -2.514631684817
H      0.281097134414     4.089292892684    -3.948245039445
H     -0.585192052552     1.958941341102    -3.018634403029
C     -2.546756224535     1.043015745518    -0.589676467991
H     -2.658598408261     1.728356271618    -1.423141904193
H     -2.898778528820     0.025209433655    -0.725367596784
C     -2.219638529941     1.492710382252     0.700592587638
H     -2.305602340793     0.801083267307     1.528708430391
C     -2.091076849560     2.913423940557     1.069174088106
O     -1.771556069505     3.206553398608     2.250753642632
O     -2.305253735349     3.906277952468     0.097818570558
C     -2.026055275094     5.252885113933     0.503486318139
H     -2.217231079745     5.939439222000    -0.349054209411
H     -2.680938686166     5.556138910639     1.351454573830
H     -0.958106577054     5.362019323250     0.799261160524
Pd    -0.417389006655     0.560299800531    -0.275104208866
C     -1.161340284261    -2.157318676013     1.372176153409
O     -1.324131383151    -1.373805583512     0.293285384145
O     -2.004421079101    -2.989342488723     1.773195657452
C      0.173648115540    -1.890447360665     2.143034922858
H      0.947218617553    -1.607433396279     1.423651605608
C      0.644356644114    -3.076322052475     2.956058961920
H      1.593783318828    -2.821301725583     3.470395767724
H     -0.120980270741    -3.329480095895     3.718996593725
H      0.808049626932    -3.951706061188     2.294780804120
N     -0.006031147701    -0.754685325129     3.057764274566
C      0.551828157741     0.457767687818     2.840329539075
O      1.202149941082     0.773203095613     1.806479129870
C      0.359412459457     1.453480110607     3.911994135579
H      0.830099124620     2.404686155280     3.608543916840
H     -0.725039093893     1.597921607049     4.055464079788
H      0.824235893665     1.062840195419     4.833388224400
N      1.165434448904    -0.478253038396    -1.250029587975
C      2.434317254472     0.035574882058    -1.309073030727
C      3.384198688738    -0.570403887474    -2.107504434042
C      3.070130308676    -1.692016392740    -2.843687805788
C      1.799957794314    -2.198124051765    -2.748237463767
C      0.861806281670    -1.559230007531    -1.911678322871
H      2.694167600470     0.914710273609    -0.732041738205
H      4.377650891437    -0.155191103737    -2.152862489596
H      3.814233237900    -2.169346909088    -3.475822681424
H      1.494958366295    -3.077131778531    -3.280442098930
O     -0.320968523181    -2.147539663329    -1.863392268264
H     -0.897032450136    -1.864935649733    -1.044191296491

