# STO-3G

title

0 1
C     -0.078361695861     3.372033513886    -1.259033530027
C      0.972932794203     4.300412171936    -1.095889536540
C      0.916122245964     5.554277523214    -1.740110760407
C     -0.187243509020     5.888219816060    -2.549867242576
C     -1.236958050443     4.963368379566    -2.711167596079
C     -1.186783641814     3.708530487927    -2.066866781580
H     -2.726254403354    -1.355407063741     1.992755672908
H      1.832760881134     4.057322089969    -0.472051906000
H      1.730084539280     6.264423005553    -1.604846583522
H     -0.229118283366     6.855911689662    -3.044598621639
H     -2.092950051926     5.213605753379    -3.335016822297
H     -2.002989410816     3.001850200252    -2.210450299312
C     -1.639955236911     1.817158421798     1.070540922047
H     -1.758004221954     0.803221985813     1.437270959595
H     -2.482891796761     2.256653333420     0.548248063875
C     -0.562309738334     2.609773096682     1.475212326236
H     -0.546753157806     3.655568117210     1.215646974981
C      0.498210297844     2.199056107218     2.412020593524
O      1.469536083951     2.978629223877     2.589022218314
O      0.498814420870     0.897476996995     2.933729618639
C      1.707657159853     0.482510331789     3.586696375154
H      1.594855040313    -0.562633645006     3.948711442818
H      2.565936276285     0.500527425684     2.876797809434
H      1.931901627702     1.131384827633     4.462864366850
Pd    -0.036602582002     1.533154187002    -0.471877094913
C     -1.065096529665    -1.260533121016    -0.146319952517
O     -0.067537910497    -0.474841822682     0.284490132126
O     -1.797250911588    -0.969029087725    -1.124529838548
C     -1.325094258154    -2.448895611052     0.814225102110
H     -0.375983515307    -2.932129745438     1.066589189861
C     -2.304419512868    -3.467745245335     0.277824223768
H     -2.439108356100    -4.277015419031     1.024869696476
H     -3.284296111266    -2.980279576868     0.097346812270
H     -1.924179974678    -3.901288035324    -0.669552768508
N     -1.864767329114    -1.885325971697     2.055760404708
C     -1.133842587744    -1.888253203932     3.208642672157
O     -0.026229831253    -2.450661172833     3.352748337717
C     -1.752408613482    -1.178671776602     4.348627004980
H     -1.083593733992    -1.267819599217     5.221976291134
H     -1.867368414619    -0.121438748438     4.059737885161
H     -2.730551435282    -1.645173416403     4.555746998424
N      1.586581986497     0.982596148389    -1.722527231589
C      1.810061396953     1.559951687394    -2.946581952181
C      3.005945760521     1.353158663108    -3.602838818418
C      3.983661876855     0.560530169781    -3.045462286890
C      3.729533471338    -0.028669476151    -1.836225561121
C      2.490723723534     0.193703297312    -1.198323564716
H      1.050483606357     2.181816302863    -3.404415877211
H      3.172283996164     1.820308661018    -4.559792937293
H      4.928305325830     0.397350935745    -3.557564009223
H      4.440617061511    -0.671763816386    -1.356479190735
O      2.351748566231    -0.454820342507    -0.059003581153
H      1.361423710611    -0.551039139366     0.266015061770

