# STO-3G

title

0 1
C      1.668654701274     2.858765021964    -1.110331205928
C      2.905962715860     3.257920024967    -0.560322569076
C      3.690618006106     4.228566746970    -1.219703698724
C      3.243240295847     4.807935949512    -2.422524500755
C      2.005301112892     4.413245792032    -2.966951421810
C      1.218593045187     3.440759137358    -2.315140817974
H     -1.617641023022     0.101878551419     2.734717580186
H      3.271211362104     2.817374536170     0.365978132279
H      4.644660486227     4.529280389716    -0.791183400525
H      3.847213280189     5.559226318364    -2.926038660981
H      1.647570204014     4.860330433981    -3.892721703527
H      0.263082066713     3.146275036578    -2.747437477502
C      0.128540176839     2.572833949440     1.647311535622
H     -0.290125410865     1.829156562013     2.310598600495
H      1.050939760687     3.043612582204     1.971793489763
C     -0.612204809824     3.138622902375     0.607938360414
H     -0.231502374150     4.013267809704     0.105817862543
C     -1.998825034873     2.788901004266     0.248392034836
O     -2.525240611427     3.391266161470    -0.723626108180
O     -2.573766821125     1.623448911316     0.773989620167
C     -3.849130792544     1.245418947769     0.240318976775
H     -4.197304719343     0.322213818672     0.751981493674
H     -4.604142837028     2.045080739403     0.413664913687
H     -3.773077957726     1.029791210118    -0.849651819840
Pd     0.655708366007     1.399387109180    -0.193106507255
C      0.372866039340    -1.106180838880     1.578184010614
O     -0.351527837782    -0.233113729858     0.843297846775
O      1.548985708267    -1.448853315061     1.337437364478
C     -0.398668193752    -1.580505363922     2.845332310339
H      0.325806263444    -2.033568839027     3.527429445778
C     -1.468611069324    -2.600853505740     2.524098988768
H     -1.973896792590    -2.911950725696     3.461503449859
H     -2.224777242926    -2.144420326294     1.851258214549
H     -1.020382338741    -3.489402121420     2.033782739638
N     -1.054747452328    -0.401699524768     3.420788939953
C     -0.699548203007     0.364833471862     4.487715599776
O     -1.085898408088     1.552161850543     4.630602106703
C      0.148262111426    -0.257098483151     5.527443452228
H      0.246476154283     0.457468232321     6.364316360268
H     -0.359020231054    -1.173492853519     5.872420421197
H      1.141240873844    -0.470682503164     5.098647634194
N      0.996665555604     0.105656790690    -1.838110826274
C      2.112722269918     0.177748302561    -2.631720200627
C      2.166877593500    -0.529531258122    -3.815705060340
C      1.111426452332    -1.322782880942    -4.207128848627
C      0.019955069548    -1.403272277091    -3.383864813252
C      0.006605661489    -0.675877904606    -2.175465871650
H      2.953163593234     0.794681339157    -2.337299841939
H      3.044876873741    -0.456077112407    -4.436366876898
H      1.148865504219    -1.880011384311    -5.139456966375
H     -0.826076134493    -2.017899912213    -3.618186312055
O     -1.076249546210    -0.861398137263    -1.439862360809
H     -0.936477305496    -0.586055032132    -0.442624199241

