# STO-3G

title

0 1
C      0.896908801490     2.424770748916    -1.140542671075
C      1.950321303210     3.312733154778    -1.452298943259
C      1.756779924009     4.344533935844    -2.396210013837
C      0.512228375028     4.501135492697    -3.035149205968
C     -0.541157746610     3.617989341651    -2.727050586175
C     -0.349909877853     2.584220710301    -1.787415800105
H     -0.594442907254    -0.980958246471     1.468627035429
H      2.919445953310     3.217550926873    -0.966050560153
H      2.575609388664     5.024381898212    -2.623610678274
H      0.364335403141     5.299013634391    -3.759189397302
H     -1.509206462124     3.731223028264    -3.212000209016
H     -1.177259580658     1.913736418379    -1.557288951274
C      1.868597222141     2.148792368681     1.858698920560
H      2.411095042380     3.008136836716     1.478022676349
H      2.446100877812     1.388625875596     2.378499176185
C      0.472420086338     2.147371161248     1.920236884280
H     -0.043061939656     1.346719411085     2.433257354789
C     -0.375758484722     3.298893064615     1.565849826133
O     -1.624783316213     3.144274355383     1.532662514741
O      0.224424700763     4.513774120557     1.190039633505
C     -0.664123563146     5.526904245305     0.700229522867
H     -0.076877361142     6.430034415968     0.428769550327
H     -1.196142584821     5.175570560652    -0.212771030280
H     -1.407744093434     5.812636006630     1.478326979408
Pd     1.184436467654     0.901558318211     0.131764552089
C      1.632204202559    -0.988474296709     2.620485971953
O      1.531134815445    -0.842082771089     1.301059424646
O      2.660461736902    -0.759471390049     3.307005664972
C      0.304699434096    -1.451129653283     3.304194259149
H      0.226726679300    -0.984886793049     4.290729739802
C      0.237741867769    -2.954102884566     3.466531134159
H     -0.707616055418    -3.227130451174     3.979585785882
H      0.254399545044    -3.429265322891     2.464772754762
H      1.098183669186    -3.312721121718     4.068170304325
N     -0.817817909420    -1.027976698621     2.463005639039
C     -1.958376956942    -0.499405326046     2.971992399619
O     -2.207368854924    -0.349719441131     4.193385626770
C     -2.959645674986    -0.079433095483     1.967306919928
H     -3.814974496304     0.379350694983     2.493608710580
H     -2.484310908559     0.657303515863     1.298585419667
H     -3.277817027894    -0.972710079780     1.407113610849
N      1.000639990849    -0.401537150300    -1.498872721277
C      1.968680002254    -0.444943935204    -2.465127228470
C      1.873266240380    -1.363383177102    -3.492504547379
C      0.809439972432    -2.237832002582    -3.550593058485
C     -0.149315892213    -2.165732373285    -2.570246450822
C      0.003451193186    -1.203151127117    -1.540023365383
H      2.807029484329     0.240655535556    -2.421701980522
H      2.640067155832    -1.393651672649    -4.249357434356
H      0.730396125498    -2.962821857080    -4.356639182769
H     -0.996440089797    -2.818845645858    -2.582088832176
O     -0.954260176353    -1.109432991086    -0.587641834297
H     -1.630456135145    -1.809614347739    -0.588815735335

