# STO-3G

title

0 1
C      1.744128252037     2.890564726736    -0.729138368134
C      3.116670915132     2.683491912368    -0.988686955111
C      3.918227160939     3.741189999307    -1.468256188109
C      3.356301982475     5.010578268580    -1.705391655485
C      1.985687147615     5.218238213012    -1.456962334403
C      1.182498099014     4.165718516451    -0.968849919986
H     -2.597374805888    -2.074844256649     1.831775229186
H      3.562008314838     1.701336563893    -0.841285887202
H      4.974375287648     3.566028226810    -1.664076928827
H      3.975540622951     5.823074483297    -2.078490668331
H      1.540386799801     6.195654878253    -1.634167295475
H      0.128446136758     4.356263435120    -0.769210970054
C      1.084849912821     1.340163112630     2.142000808285
H      0.541918410357     0.504169355447     2.568392065482
H      2.165837351431     1.231147213467     2.088864990651
C      0.499493224235     2.565503274931     1.861596707669
H      1.129560858169     3.389788626614     1.571114598929
C     -0.899909137933     2.943852554683     2.125753163000
O     -1.329456822131     4.007229244266     1.605186204168
O     -1.722906714600     2.147615700162     2.940194025858
C     -3.031207717085     2.678098083927     3.203075020580
H     -3.576507354149     2.004556961053     3.896685656857
H     -2.963906691366     3.678626960050     3.688076571601
H     -3.619669435724     2.761232825828     2.261365661317
Pd     0.627356351326     1.334470475732    -0.118772528996
C      0.116217770414    -1.523085370119     0.653422053615
O     -0.514268686973    -0.412641061697     0.471970995204
O      1.302514638182    -1.792562453326     0.215182036929
C     -0.559370769205    -2.623756061715     1.502317734733
H      0.209766818997    -2.982647349870     2.194740623597
C     -1.040423442965    -3.788017630570     0.662659474974
H     -1.478272188868    -4.563451465239     1.324843465273
H     -1.820854320833    -3.438146916837    -0.043437161501
H     -0.194952903632    -4.229652086009     0.095561184537
N     -1.684790017223    -2.107905627528     2.267640552273
C     -1.449205609673    -1.336048766911     3.360902866595
O     -0.304819598462    -1.034296972882     3.779582246404
C     -2.648411327531    -0.880406600975     4.090265406489
H     -3.174438187664    -1.775753877090     4.460245709542
H     -2.323652195339    -0.236028284057     4.925242067515
H     -3.280150276827    -0.319577112734     3.382466780123
N      0.614949464698     0.802892847183    -2.127263495035
C     -0.125357027753     1.546754768599    -3.005744131915
C      0.050039514379     1.387165471345    -4.364335404099
C      0.968392980333     0.482688241606    -4.849475181501
C      1.690095161169    -0.258015723821    -3.951021952687
C      1.480335487806    -0.076361935646    -2.566223944239
H     -0.843327082393     2.267071078446    -2.631140097862
H     -0.531936808530     1.982937119950    -5.048048583332
H      1.115003632388     0.357688454118    -5.919006807065
H      2.417643242288    -0.979889220715    -4.263622223746
O      2.218200493669    -0.832672183330    -1.797357791947
H      1.838199787074    -1.164480939672    -0.808231494339

