# STO-3G

title

0 1
C      1.648609779483     3.186487399654    -0.634384756834
C      3.025782213438     3.019608087783    -0.372910174793
C      3.931645983819     4.062857795946    -0.658990797177
C      3.471488597655     5.272657952115    -1.213813688378
C      2.098517964035     5.437753182771    -1.479995613247
C      1.186826100009     4.400596054573    -1.190387316399
H     -1.377760377807    -0.399265818698     2.950722275853
H      3.400036837606     2.086059475311     0.043890337958
H      4.990787184399     3.926037480459    -0.449200670011
H      4.171877406733     6.075224606698    -1.433176965532
H      1.733102678980     6.369745741291    -1.907160414165
H      0.128787501618     4.547841366866    -1.404236281579
C      0.359060213116     2.080317325106     1.898814058724
H      0.083992059968     1.134721426499     2.351875236510
H      1.390832968773     2.374913579729     2.061985830141
C     -0.552853035678     2.975095091798     1.335973098915
H     -0.197171025016     3.945859468470     1.028459609324
C     -2.020562086676     2.860674916403     1.390163247466
O     -2.701154690724     3.706047921968     0.751736671036
O     -2.624350097479     1.936828173964     2.257863727486
C     -4.058354872398     1.949915282749     2.286190071698
H     -4.418101982683     1.192545605538     3.014109092420
H     -4.440160686240     2.945280682498     2.607167381875
H     -4.475256055787     1.696867181475     1.284589911213
Pd     0.373276214372     1.681250613288    -0.311785886251
C     -2.035315383193    -0.551668851217     0.361734577080
O     -0.798380085809    -0.087033067356     0.120864505115
O     -3.084220078655    -0.117990017292    -0.151663817491
C     -1.986064304335    -1.711442287488     1.428097832886
H     -1.583776036775    -2.601341001477     0.928597575491
C     -3.340169875644    -2.054457499752     2.003390419301
H     -3.233671915157    -2.885067152749     2.731042797411
H     -3.746475565185    -1.169716585338     2.532780180555
H     -4.038043078619    -2.356943596020     1.195720944345
N     -1.114283165162    -1.288013352602     2.527822435538
C      0.193461128856    -1.585998361807     2.773340298961
O      0.948607225642    -0.819937085793     3.422163777989
C      0.699032008479    -2.899030210181     2.319369657056
H      0.729219761075    -2.915673870680     1.219467952670
H      1.720400604524    -3.028826278196     2.718547085404
H      0.033881926804    -3.682347064003     2.721768536559
N      1.231916470713     0.647420522536    -1.958852270863
C      1.677571938199     1.301471140389    -3.079093953726
C      2.443234582025     0.633884031572    -4.012879279978
C      2.763901212797    -0.693436869409    -3.837932353421
C      2.290004297357    -1.333946103231    -2.724199805910
C      1.500317126346    -0.623081602258    -1.796278742874
H      1.430272810076     2.344222620960    -3.236678343917
H      2.794020684841     1.162096109432    -4.884653374267
H      3.369645991983    -1.221523533522    -4.569751483473
H      2.491157613143    -2.369665886244    -2.536296526149
O      1.075743322575    -1.340748025595    -0.779273234577
H      0.274382583300    -0.879757177752    -0.244390353691

