# STO-3G

title

0 1
C      0.789870847627     2.673775908291     0.106431130740
C      1.892984930871     2.670286155156     0.987741751455
C      2.778309754146     3.768795400456     1.022729887608
C      2.573436799593     4.877406491424     0.179324970540
C      1.477219218169     4.881688482084    -0.704921476263
C      0.589559526355     3.785983422058    -0.742679854068
H     -1.412655287319    -2.786444812208     1.967658716516
H      2.078143134606     1.816527093552     1.636618436348
H      3.627698881400     3.749721185359     1.702981381199
H      3.260205688618     5.720312023891     0.206338546184
H      1.310978350408     5.731344803933    -1.364629460114
H     -0.256151168563     3.815857541297    -1.428199947438
C     -1.181074188215     1.265785069991     2.150036251855
H     -0.367438090631     1.624104539231     2.772848833083
H     -1.451529767687     0.220055985641     2.226087960377
C     -2.005101322052     2.111834025563     1.411328935309
H     -2.859828147675     1.690241705633     0.900992501929
C     -1.937633430837     3.582120415225     1.454876623527
O     -2.647038131776     4.243699514592     0.653097134610
O     -1.041849702630     4.210644689297     2.337261154149
C     -0.936002605510     5.635479818300     2.215511281261
H     -0.193746114367     6.012492733382     2.951351604628
H     -0.584496206967     5.919303228955     1.197884740374
H     -1.914404187468     6.125537351235     2.421482085819
Pd    -0.470835051104     1.118473555016     0.034969206635
C     -1.610747707812    -1.589346727328    -0.728760557655
O     -1.883008035148    -0.499501646937    -0.030798572859
O     -2.008776665077    -1.854201962246    -1.890493374632
C     -0.626193681491    -2.596027769490     0.003790973199
H      0.381538869575    -2.385472139083    -0.373141844357
C     -0.940364832938    -4.048213406065    -0.285473161417
H     -0.213955924491    -4.700670780917     0.241761690737
H     -1.963633811827    -4.283147310916     0.071027344620
H     -0.878091905641    -4.243746287578    -1.376191507219
N     -0.611820812535    -2.424401454340     1.463369732046
C      0.289173273449    -1.699418055755     2.141081904601
O      1.207864179604    -0.991199812118     1.637948867895
C      0.191117928236    -1.758793475177     3.613658904441
H      0.971790033079    -1.115451167582     4.057005651350
H     -0.813296855582    -1.419328746729     3.915808190831
H      0.344792560683    -2.808755998363     3.919723858162
N      0.492286606144     0.465493385107    -1.689067846827
C     -0.117654422264     0.784957836785    -2.873119037498
C      0.496661080120     0.478001503984    -4.069142589236
C      1.713729301070    -0.166222288733    -4.083764926662
C      2.287286021510    -0.498414453961    -2.884421901027
C      1.625750231801    -0.171022709273    -1.682259625157
H     -1.074252479626     1.294596426948    -2.867145951875
H      0.011390649870     0.736308316681    -4.995987863724
H      2.201345272766    -0.414271384845    -5.022726884329
H      3.225359233573    -1.013164495328    -2.826463598076
O      2.252436074859    -0.584460683810    -0.600483523657
H      1.758858698264    -0.637300855546     0.304620509015

