# STO-3G

title

0 1
C      1.252086420041     2.596494433266    -1.095171804514
C      2.391235412729     3.405854350388    -1.292868702494
C      2.371250454643     4.429274306462    -2.264880775318
C      1.217742750145     4.654693255969    -3.039647893340
C      0.078702068106     3.850378734366    -2.839682022665
C      0.094459520907     2.822924196597    -1.874278711022
H     -1.268648641808    -2.415506284453     1.897952677372
H      3.291294409911     3.255003981007    -0.700338419016
H      3.252710160019     5.052054127605    -2.404663780731
H      1.204276590294     5.449730686888    -3.781537201297
H     -0.820349344691     4.020560102607    -3.428834123340
H     -0.794121394487     2.210594364274    -1.730231033799
C      1.827849706506     2.340422082044     1.982509207629
H      2.497936820912     3.134254604794     1.666213309097
H      2.251146648507     1.542658121464     2.587698929499
C      0.441157701763     2.473548847371     1.868273545062
H     -0.214143158397     1.741359421367     2.321067462315
C     -0.242628757646     3.693079290486     1.398001045771
O      0.425194450982     4.739844671284     1.182306879582
O     -1.605623447401     3.614255668510     1.064698553187
C     -2.185196983058     4.808773345102     0.521929627522
H     -3.259030985951     4.629584995034     0.300289029454
H     -2.116131878371     5.647810772877     1.251065256595
H     -1.675767381433     5.099849825392    -0.425270889842
Pd     1.270609918966     1.086733031068     0.206640162315
C      1.180207516024    -0.837066648895     2.901812822833
O      1.107343145385    -0.618295905249     1.578228756303
O      2.077699284323    -0.386299740668     3.640233913220
C      0.005618263268    -1.695899028767     3.475455380903
H     -0.256456657812    -1.231738665604     4.431842214061
C      0.412705047452    -3.132248518206     3.720227145472
H     -0.435837920951    -3.682907420068     4.176630179237
H      0.674323436089    -3.613980291130     2.755815079015
H      1.284042176666    -3.172850985599     4.406293249419
N     -1.162774554747    -1.689300461269     2.597989168931
C     -1.890910632671    -0.551017012120     2.458831312207
O     -1.647397991245     0.518308444924     3.070999963936
C     -3.018361861088    -0.613733085316     1.508147297497
H     -3.515069849772     0.372054953895     1.481566863947
H     -2.611251673616    -0.874591222694     0.516684942043
H     -3.715527665697    -1.393987365635     1.858699301954
N      1.147642434227    -0.296753352548    -1.421541535091
C      1.699817131319    -0.015687994157    -2.646407056091
C      1.425780942967    -0.819392689647    -3.733939385409
C      0.604905794345    -1.916566050979    -3.606724708312
C      0.085562126658    -2.196930200634    -2.372142568603
C      0.396631157508    -1.361597698551    -1.277676587329
H      2.357511136588     0.835991578690    -2.768288585762
H      1.859952467921    -0.580449246983    -4.691183727552
H      0.385324382448    -2.551021995475    -4.461419910706
H     -0.542185189242    -3.048209507420    -2.197966120661
O     -0.122536694155    -1.742991984330    -0.133777004129
H      0.358745114533    -1.258883199992     0.755184067164

