# STO-3G

title

0 1
C     -0.123645248087     3.043547281661    -0.557762683747
C      0.853917979024     3.793815141861    -1.249656178157
C      0.501308975383     4.998364486197    -1.892640659125
C     -0.828290975797     5.461620414258    -1.853326218925
C     -1.801889437531     4.718344382594    -1.159831822818
C     -1.453933532825     3.515478133713    -0.508519122524
H     -1.181146844403    -1.384259867296    -0.000587647008
H      1.885580360741     3.446869717656    -1.293210075812
H      1.264423273635     5.569555441099    -2.418191672653
H     -1.098788814665     6.391087158321    -2.348963743448
H     -2.829718374176     5.073081962496    -1.115362830776
H     -2.223008504993     2.968492015711     0.032474506052
C     -0.297906480425     2.015995594424     2.290361914144
H     -0.518858676755     1.121077659835     2.859470881994
H     -1.156518172366     2.626618332443     2.042513552485
C      1.005615266567     2.485298128938     2.123338542534
H      1.178731715069     3.455856273209     1.684139804085
C      2.194375145104     1.848699201837     2.717205720961
O      3.331602188586     2.277018320991     2.392450558285
O      2.035714431053     0.771300372659     3.603747864757
C      3.232265423500     0.057093327948     3.943261279331
H      2.976737213522    -0.784602467695     4.623134584710
H      3.702823008420    -0.378600703829     3.032037067248
H      3.960735928781     0.720830936613     4.461085631808
Pd     0.386154889682     1.297051643621     0.278283812647
C      0.657573423292    -1.540611839647     1.954690020473
O      1.109313205287    -0.564681319075     1.142241808089
O      1.401650518378    -2.348914600181     2.544161625976
C     -0.897738518955    -1.582695126468     2.089336133562
H     -1.196671842013    -0.948854780541     2.933065829778
C     -1.419265048408    -2.980933568720     2.340077079381
H     -2.523475222520    -2.953303633493     2.447116524218
H     -1.157487341761    -3.631582812006     1.480897363998
H     -0.976288005517    -3.397138498906     3.268770405027
N     -1.554522406015    -1.067234766490     0.886697792570
C     -2.525729261780    -0.118704800220     0.915592555688
O     -2.923299369783     0.481325956546     1.942487663827
C     -3.143428645427     0.185753145696    -0.392032379600
H     -3.585178342138    -0.750212777977    -0.776001227681
H     -3.931724491382     0.944737077139    -0.244772445250
H     -2.362393047639     0.551470713615    -1.077490280378
N      0.831617519809     0.499210546944    -1.652923480342
C      0.197391960091     0.938621108083    -2.787278726488
C      0.718038322725     0.653733371934    -4.032034233136
C      1.875062199847    -0.080452578885    -4.157417436788
C      2.485992395040    -0.527222011526    -3.017811220065
C      1.925088164518    -0.226314531657    -1.757693025643
H     -0.717926106940     1.512649430045    -2.712924674294
H      0.211698518473     1.012828139153    -4.913127805437
H      2.289052843389    -0.306097926750    -5.136680079280
H      3.382101874167    -1.115283148131    -3.045865417989
O      2.585157758463    -0.725571922460    -0.745107950767
H      2.069952729162    -0.699469787215     0.207951947300

