# STO-3G

title

0 1
C      1.510438328639     2.448026068144    -0.986088144144
C      2.749193697421     2.596706997950    -0.324436416004
C      3.780791982825     3.348768646335    -0.926084353096
C      3.587264989819     3.949908238289    -2.184943047272
C      2.354782711875     3.791832912101    -2.847697964127
C      1.317865509093     3.042724552370    -2.252397531652
H     -0.399219720978    -0.010357645859     3.873080796699
H      2.918539237632     2.104295569797     0.629531110435
H      4.734041425675     3.458024650282    -0.411831238437
H      4.384634539706     4.529639071644    -2.644722272492
H      2.196202042554     4.246010088656    -3.824293713973
H      0.374546016259     2.921838404897    -2.783996680096
C     -0.312817921256     2.918180302455     1.372456717089
H     -0.746314087312     2.389745988831     2.217106433988
H      0.678640492930     3.336151208634     1.503486207594
C     -1.093469937607     3.276213235931     0.269791152959
H     -0.682680305215     3.921286172068    -0.491701062899
C     -2.544694452609     3.039081683618     0.174599913088
O     -3.119399041876     3.262481948342    -0.922161583134
O     -3.259670532155     2.635890117492     1.313437381710
C     -4.595617199009     2.170497419111     1.081151731793
H     -5.044493886462     1.851624801319     2.046647342834
H     -5.229410080408     2.975199930412     0.645230070529
H     -4.591002976375     1.285850684752     0.404013765257
Pd     0.044422540599     1.356082251710    -0.163151928773
C     -1.874624994117    -0.578421916139     1.575338106219
O     -1.701822271931     0.260046620650     0.539527283537
O     -2.984425132718    -0.841550203411     2.088751261337
C     -0.537956998176    -1.187909729011     2.115112953504
H      0.141528293725    -1.338626878605     1.271643549475
C     -0.732790277456    -2.495507142797     2.851047456952
H      0.249828649846    -2.880474485802     3.193422652223
H     -1.382462611189    -2.328778472083     3.735275152924
H     -1.206909258087    -3.242873188985     2.182200042371
N      0.116623373756    -0.244130432087     3.033717441574
C      1.310452157248     0.333246856913     2.754782146943
O      1.924238085378     0.213435910193     1.661477384692
C      1.918829176842     1.166277104497     3.815848760699
H      2.045177238795     2.187019327175     3.422057358315
H      1.281614094059     1.177662669957     4.717007868283
H      2.901995513503     0.728298497121     4.060987802906
N      0.530514007728    -0.273482710218    -1.418126132114
C      1.832598550411    -0.590479776382    -1.705955032432
C      2.113171213537    -1.542480418239    -2.665666020881
C      1.095202474857    -2.183855342729    -3.336522137751
C     -0.197730901535    -1.868340715395    -3.010920800842
C     -0.445848208352    -0.900465135985    -2.015867719106
H      2.642994803257    -0.098260963952    -1.182759324371
H      3.140384477817    -1.778692585813    -2.890166956091
H      1.312409458218    -2.930197031734    -4.096063458967
H     -1.036147067434    -2.342588164053    -3.481236230718
O     -1.723073768694    -0.704112164454    -1.749898575854
H     -1.894387122118    -0.227121425267    -0.838091008113

