# STO-3G

title

0 1
C      1.338412335617     2.833619555173    -1.066190572932
C      2.608732973466     3.398544661407    -1.313839518846
C      2.731608443383     4.513726723788    -2.169574965953
C      1.590817204574     5.076611985849    -2.774626978227
C      0.323324414078     4.516436052373    -2.522933725811
C      0.195135601257     3.397382514514    -1.673550876156
H     -1.135163689445    -2.429045844923     1.893080856539
H      3.500382189657     2.979041678459    -0.850874954511
H      3.714927394703     4.941061122933    -2.356765111006
H      1.687445827612     5.940395818921    -3.428329123588
H     -0.565308252983     4.945778993352    -2.982061401501
H     -0.790107168796     2.969592343443    -1.491709391056
C      1.736336745492     1.807363845525     2.148346356214
H      1.257249736783     0.997145391129     2.684234344421
H      2.818506311537     1.858183369293     2.204408670547
C      0.983436010393     2.861695909012     1.651717202892
H      1.457928328356     3.771159822023     1.326382300961
C     -0.484181753883     2.897133199061     1.666905075925
O     -1.082759772254     1.898276945939     1.185531145604
O     -1.110679210486     4.153592031687     1.702037370275
C     -2.536552894241     4.145873282048     1.545337559933
H     -2.919223231630     5.187015337621     1.614913143571
H     -2.823939506343     3.738115764834     0.549580964766
H     -3.019737620130     3.543198821925     2.347581285710
Pd     1.232375700422     1.143144955227     0.016872756324
C      1.748553233207    -1.351829339377     2.065260899758
O      1.185419931297    -0.785180655097     0.989418199870
O      2.930362123112    -1.186566614985     2.422290822876
C      0.757997137612    -2.236301613591     2.893305918783
H      0.973721532623    -2.017400507547     3.944348552603
C      0.964810455645    -3.714726200992     2.647136335886
H      0.274939248308    -4.296085058511     3.293304323086
H      0.743199049609    -3.948034300187     1.585444162021
H      2.011323087982    -4.000033894195     2.881159895506
N     -0.637608086984    -1.910525837390     2.608917959651
C     -1.145109166356    -0.708905866609     2.997112575294
O     -0.507214362495     0.148849942500     3.659506414632
C     -2.550711070545    -0.456136502715     2.622022966971
H     -3.167554576555    -1.259133903526     3.057523697140
H     -2.846302687446     0.530752820539     3.014699690503
H     -2.612807167500    -0.463990411685     1.518913187914
N      0.621987597591     0.090605517104    -1.737858217151
C      0.995008470321     0.478958481060    -2.999602565087
C      0.358640648971    -0.046574358228    -4.105599751500
C     -0.647897789376    -0.973896732533    -3.960232533630
C     -0.983119180227    -1.373566472438    -2.695216903637
C     -0.305177690387    -0.823048325218    -1.585564026191
H      1.792440771712     1.198723041577    -3.137136155339
H      0.655479629229     0.276078988441    -5.089974063986
H     -1.152490456396    -1.389896305339    -4.828186515498
H     -1.738530249919    -2.111116883452    -2.511073022580
O     -0.669282441886    -1.324501281509    -0.423651228905
H      0.068870205267    -1.114402339311     0.360680810203

