# STO-3G

title

0 1
C      1.567019265866     3.002561836689    -1.229251834631
C      2.919513403497     3.396484393757    -1.126225361963
C      3.433002016131     4.396250395280    -1.980108756259
C      2.600880397014     5.012421737796    -2.934741303906
C      1.249992140540     4.624804850975    -3.032916812206
C      0.732892500780     3.623118037485    -2.184641571983
H      0.262570880052    -0.508637604178     4.449174210666
H      3.578980145869     2.926035971916    -0.398175259199
H      4.477581759538     4.690435875492    -1.896629376342
H      2.996931573108     5.785735192098    -3.589045602875
H      0.596250997640     5.100121667276    -3.762207277716
H     -0.315097044037     3.337721038353    -2.270701448086
C      0.934924571101     2.486962339101     1.958306473167
H      0.589827289272     1.645815953053     2.550693683316
H      1.943556102563     2.840705208492     2.144688695786
C      0.057922006402     3.229517627816     1.167024490080
H      0.401673776356     4.139939680554     0.704629325866
C     -1.386473602741     2.978420644363     1.023304304191
O     -2.040360443994     3.707508832375     0.233688022758
O     -1.921758257885     1.782510313525     1.522333442667
C     -3.213238675893     1.411287163869     1.017584412732
H     -3.519552543701     0.438221295772     1.459245353046
H     -3.979914988749     2.173789303780     1.281211510994
H     -3.181775053207     1.275904566344    -0.087463112985
Pd     0.954885708151     1.491601892214    -0.063140764657
C      1.387757869432    -0.875324732501     1.747612092651
O      0.417692454665    -0.180534003823     1.150654495909
O      2.609357991731    -0.759704978357     1.481898489365
C      0.891990639035    -1.775288451099     2.914010855075
H      1.759001415490    -1.945709851595     3.563049745885
C      0.387562729123    -3.126709038284     2.447974289092
H     -0.037685637922    -3.682315236587     3.309120289384
H     -0.398333245336    -3.003428513823     1.675193744613
H      1.222962090229    -3.713494670501     2.014127650431
N     -0.128694099511    -1.083404637359     3.711175707278
C     -1.453173898784    -0.909714615940     3.410033774427
O     -2.079951232977    -1.441487518198     2.468808979183
C     -2.183671720935    -0.029662516859     4.352477459661
H     -3.245261793235     0.003643845539     4.053724393739
H     -2.079502887222    -0.457268662718     5.363212247600
H     -1.737964562288     0.977837956446     4.295537311947
N      0.711177646354     0.244763232393    -1.750296714569
C      1.475266676152     0.374664705900    -2.881832504404
C      1.125399621840    -0.296236000582    -4.035395641500
C      0.015432878013    -1.109695671630    -4.063342774003
C     -0.716461744170    -1.247561612319    -2.914881643045
C     -0.322700442472    -0.558266703184    -1.747934923893
H      2.355180238456     1.006396382311    -2.877291530451
H      1.728660982068    -0.177666349224    -4.920532187016
H     -0.265734868038    -1.638350786705    -4.970308872618
H     -1.579476105523    -1.881685037521    -2.862785905642
O     -1.089210610301    -0.805875579123    -0.704399032128
H     -0.667149974856    -0.574773670715     0.215013948690

