# STO-3G

title

0 1
C      1.649648480751     2.419940074027    -0.371442447176
C      2.993084659292     2.019502080542    -0.192703798609
C      4.036434714507     2.963024417152    -0.284576916391
C      3.751867201546     4.313960768539    -0.565492343353
C      2.415821668542     4.715549979286    -0.752116446754
C      1.367413928173     3.774918881621    -0.655264776904
H     -4.322564862849    -0.740081920272     0.565577759866
H      3.232387498282     0.978085300156     0.016986561027
H      5.065344526816     2.638443768512    -0.140468098996
H      4.558368942279     5.039948938077    -0.638790517197
H      2.184331516501     5.756943423587    -0.968104751568
H      0.342447565220     4.112152141398    -0.798089660943
C     -1.029944583160     2.168791510041     1.259114291351
H     -0.897351385907     3.234168898205     1.105744623436
H     -1.991095925062     1.742445803770     0.994741107036
C     -0.125716829424     1.409416378388     1.997248661213
H     -0.384166624649     0.395916719496     2.269543758247
C      1.052857671651     1.961748513990     2.686701009761
O      1.886369745585     1.167444777944     3.194478839931
O      1.280442284148     3.349777616581     2.664637131785
C      2.533917977356     3.787573093917     3.206128413439
H      2.603423869289     4.893189244940     3.124283428080
H      2.621041409200     3.508175452840     4.280532890062
H      3.383706587143     3.346561324674     2.637360047927
Pd     0.185529275298     1.058864566756    -0.274819912763
C     -1.430763417427    -1.471737472948     0.407145442372
O     -1.502928076725    -0.302845683091    -0.128877155350
O     -0.361306225308    -2.194613642647     0.470201172675
C     -2.704735894749    -2.041490532560     1.073239229959
H     -2.386666191732    -2.461715808114     2.033250481363
C     -3.349951371098    -3.135327247227     0.249959481865
H     -4.235294192054    -3.529512844901     0.790596688534
H     -3.680259172077    -2.721337664178    -0.724405368879
H     -2.630428842559    -3.962778432730     0.078970069650
N     -3.692320635885    -0.996815747728     1.314696202711
C     -3.523955575184    -0.143954876248     2.360913420621
O     -2.558602970484    -0.184383211891     3.159527092712
C     -4.574219143390     0.882161502082     2.526909962231
H     -4.323981015182     1.504425734308     3.404136373426
H     -4.605120922057     1.491286950483     1.609363224280
H     -5.534944470509     0.361390689995     2.682316563923
N      0.981712560417     0.246018759735    -2.018242393532
C      1.094954700837     1.045285020498    -3.124588959431
C      1.810588152051     0.614299754887    -4.221089201004
C      2.419958169159    -0.619576687663    -4.217036076482
C      2.287836651797    -1.406212731150    -3.104431722979
C      1.540473658202    -0.941965734233    -1.997839903720
H      0.623591131612     2.021084559363    -3.136131285600
H      1.898390977928     1.255035553087    -5.082951041758
H      2.990636809561    -0.961798435940    -5.076267182196
H      2.737369297857    -2.377046327893    -3.039570625262
O      1.490950526880    -1.777202238185    -1.001118026355
H      0.648243519509    -1.870104940223    -0.258080198696

