# STO-3G

title

0 1
C      1.722875978461     2.384883961088    -0.471497030583
C      2.981258789444     1.922347107143    -0.025739982103
C      4.087475546911     2.795481904092     0.010818538425
C      3.951539878385     4.133861345436    -0.407125226758
C      2.701830905982     4.594008171238    -0.862359692782
C      1.589256190727     3.725392641954    -0.895275348090
H     -3.446390248838     0.396480209463     0.572083853551
H      3.107593904503     0.888068473311     0.290361728320
H      5.049670400371     2.425720911773     0.360032765762
H      4.806470314824     4.805426254704    -0.380449708381
H      2.585706691797     5.626115289608    -1.187299160795
H      0.633365228662     4.108451595910    -1.246889609591
C     -1.198760178279     2.452239438996     0.652225018612
H     -0.941535747393     3.487927892893     0.462034787681
H     -2.138490520338     2.100447183995     0.243514248225
C     -0.518935742472     1.691697847169     1.597562819625
H     -0.906669840312     0.723618948349     1.880534583591
C      0.547449484155     2.206399845747     2.471883503539
O      1.152666516069     1.396872181445     3.222643567052
O      0.939515836293     3.553079116383     2.375018981491
C      2.094745500900     3.927435762343     3.137001438909
H      2.309626303959     5.004672075172     2.970766593250
H      1.920844461341     3.767826954697     4.225160464483
H      2.986349364441     3.344958998651     2.811855724170
Pd     0.183156814192     1.107844899559    -0.527493989821
C     -1.626345620794    -1.317639481103     0.149047163758
O     -1.559990107414    -0.202525618324    -0.503224325623
O     -0.650040980309    -2.140295804489     0.310894365766
C     -2.970329880971    -1.608116274645     0.866140134302
H     -2.763796613933    -2.288012859147     1.696888833211
C     -3.988321260214    -2.250509910890    -0.049008238385
H     -4.922432643033    -2.443519671255     0.517573062289
H     -4.220053526420    -1.558292097527    -0.885479864146
H     -3.596815816857    -3.207312985410    -0.451891206864
N     -3.495847534137    -0.311712556822     1.302693245098
C     -3.668521313868     0.203761675865     2.551066123534
O     -3.814817492822     1.432516100304     2.759737289706
C     -3.696401207568    -0.741267191845     3.688243609273
H     -2.696216915389    -1.191019276241     3.795368412926
H     -3.947014224126    -0.170163969418     4.600080107100
H     -4.473590406792    -1.499718111221     3.491735366539
N      1.169597839571     0.152159340984    -2.093813127514
C      1.486908588418     0.901002415272    -3.196430957998
C      2.307412500239     0.382273076412    -4.175013267364
C      2.818130447931    -0.889661869059    -4.056469037418
C      2.480097556222    -1.624850997823    -2.952325463399
C      1.627229816955    -1.070609769979    -1.970524477561
H      1.094285451085     1.905927870188    -3.298285913550
H      2.555415656083     0.984242469974    -5.033716392479
H      3.471035060737    -1.301425864510    -4.821504655586
H      2.842637681470    -2.622484332008    -2.803839436800
O      1.383844972515    -1.872854432449    -0.972796771320
H      0.471887131974    -1.894498659551    -0.354106925348

