# STO-3G

title

0 1
C      1.931550301447     0.375087637890     3.097628617888
C      1.379638681724     1.672801191417     3.023589252452
C      1.864926457457     2.683909530649     3.878875479874
C      2.898098193921     2.409762728385     4.796461058534
C      3.452991281098     1.117315650963     4.854579330736
C      2.972610722704     0.096914605421     4.005558420358
H     -1.388274057723    -0.173907298308     0.743277201971
H      0.609061215684     1.903029660629     2.292635873959
H      1.438021821500     3.683103119609     3.822321950162
H      3.266179238824     3.191593803171     5.456788102026
H      4.254083793014     0.896629035109     5.557388192872
H      3.417589065790    -0.895026732007     4.058116305398
C      0.508420395555    -2.306594481920     3.490591663174
H      1.105486036520    -2.123389918500     4.377441524597
H      0.646098933084    -3.258175521084     2.985623876698
C     -0.577840703852    -1.486615631900     3.154718021360
H     -1.251144333988    -1.822114650576     2.378964008963
C     -1.085956716012    -0.384204010390     3.991981968282
O     -0.582938943603    -0.181993964707     5.127841035692
O     -2.218082179467     0.320592419973     3.550633938128
C     -2.586712253947     1.509879366326     4.270768618544
H     -2.683366644781     2.353922512044     3.553694413158
H     -3.573900415104     1.356214728268     4.757002709441
H     -1.852923234724     1.817981818790     5.050995688943
Pd     1.231276829638    -1.021328219834     1.855338551441
C     -0.462221343126    -3.003405778839    -0.283873244416
O      0.541010810891    -2.672563912007     0.543025290237
O     -0.568100817220    -4.109115124216    -0.853024403829
C     -1.568712560656    -1.902335683970    -0.451272095329
H     -2.327625814262    -2.126482017712     0.311916267582
C     -2.269892545563    -1.960043791438    -1.793755727294
H     -2.927393857033    -1.073682899514    -1.914229440604
H     -1.535334192416    -1.994688333146    -2.619934097901
H     -2.893273409772    -2.876955126949    -1.852099391309
N     -1.109577479094    -0.535292762519    -0.165847816772
C     -0.107841415925     0.223282778536    -0.690624244068
O      0.355632666955     1.222432944661    -0.080468613418
C      0.441274610024    -0.128215982467    -2.015005977370
H      0.816190172580    -1.163535495044    -1.988505018253
H     -0.357114816269     0.011631191109    -2.760390899221
H      1.277912671476     0.558547530831    -2.240465129537
N      2.858484731335    -0.687262851175     0.535228644322
C      3.407267426050     0.555531502399     0.345060183221
C      4.568993752353     0.690812963870    -0.388265909771
C      5.187890865892    -0.411024250494    -0.933783797630
C      4.608368953443    -1.638441805118    -0.751031895693
C      3.411744100819    -1.739968924377    -0.010648688180
H      2.934947872717     1.434876241718     0.762998865797
H      4.993394211796     1.672079335528    -0.524826652000
H      6.106159118778    -0.307524639974    -1.505778283734
H      5.028203510886    -2.533086551329    -1.166175728579
O      2.919108818788    -2.957516156153     0.058295114884
H      1.887200387739    -3.013029464091     0.308729092599

