# STO-3G

title

0 1
C      1.159223443216     2.875522264364    -1.154125207940
C      2.091044763568     3.663460983068    -0.443954154077
C      3.008862664698     4.474121083360    -1.145999333570
C      2.999425756578     4.505176605551    -2.553339076517
C      2.067824828506     3.720462606586    -3.260746755599
C      1.150115402943     2.905344000527    -2.565881541167
H      0.799278967106     0.276056891260     2.191137647732
H      2.119415322140     3.651470428543     0.644183142012
H      3.723957107784     5.079155053914    -0.592060753364
H      3.704557515161     5.134266374719    -3.091482883886
H      2.049962265387     3.740937062834    -4.348753800970
H      0.437660792120     2.302489552466    -3.127551390158
C     -1.146050577864     3.429715586754     0.815854772884
H     -1.667940564913     2.991556018730     1.662571239410
H     -0.326959550498     4.111320554567     1.022078926776
C     -1.655574178260     3.327544616489    -0.480143075448
H     -1.196630203136     3.885972576367    -1.281921329676
C     -2.933570149600     2.684073104298    -0.837035900515
O     -3.186465971301     2.501308594385    -2.056322548917
O     -3.829279048456     2.285029678595     0.166254000683
C     -4.985913307277     1.559985624862    -0.271602571329
H     -5.605882188160     1.295419179068     0.612173047065
H     -5.605025869721     2.177917894207    -0.960449271312
H     -4.689539331902     0.614885925271    -0.780678992674
Pd    -0.109919818925     1.687671085490    -0.166612385689
C     -1.727870434083     0.489033764630     2.309734616388
O     -1.555279324682     0.474966099619     0.963599510994
O     -2.410267695006     1.350019791407     2.901079596286
C     -0.936097932438    -0.628398468370     3.038526057373
H     -1.362735543526    -1.607284481491     2.780057483581
C     -0.932087341274    -0.476540836915     4.543608758445
H     -0.373878145161    -1.320156234630     5.000483472995
H     -0.433239927935     0.474950049787     4.817235727393
H     -1.971407102809    -0.477892011480     4.932149549645
N      0.455027579224    -0.601754722288     2.563196655006
C      1.160429964677    -1.761415838952     2.440959831841
O      0.713558231589    -2.890126641964     2.748003082786
C      2.557859977516    -1.650817672787     1.965870011676
H      2.646928020022    -2.268308286170     1.057114218586
H      2.813561051439    -0.601774778823     1.749346783459
H      3.211838460307    -2.048651497920     2.760344002039
N      1.025201449336    -0.032752236333    -0.729455064812
C      2.323701477196     0.040195036933    -1.170820436356
C      2.922290642973    -1.050389398230    -1.766563869681
C      2.232501893415    -2.228908919186    -1.930457190678
C      0.949430036073    -2.296646769859    -1.464005483672
C      0.364257485777    -1.168452831335    -0.849751203508
H      2.901471118366     0.944846313994    -1.036310467213
H      3.941103999042    -0.972963375507    -2.110326765747
H      2.700492211770    -3.089216820532    -2.401920382972
H      0.365182281306    -3.193487024882    -1.535197042863
O     -0.852189441925    -1.363538361733    -0.424083475414
H     -1.253168275212    -0.600424693775     0.245653807404

