# STO-3G

title

0 1
C      1.103725464978     3.263690224164    -1.619579974180
C      1.700093415309     4.514878672041    -1.347104005682
C      2.158684595688     5.327007422362    -2.406581491990
C      2.023258692312     4.899361402908    -3.740981348784
C      1.428352594073     3.652032623630    -4.014261962085
C      0.971883556041     2.834664153093    -2.959240046207
H      0.208926371552    -1.771178573011     2.242523016093
H      1.822876936654     4.861470604951    -0.322446068086
H      2.616581278687     6.289444971269    -2.186320172687
H      2.372751359667     5.528814807331    -4.556139285554
H      1.316236800139     3.313587227337    -5.042719389382
H      0.517433884604     1.871536497535    -3.188187435797
C     -1.002999448087     3.566875289004     0.595380593507
H     -1.176030936757     3.268046688820     1.625297156595
H     -0.485253186311     4.507077085119     0.438454023496
C     -1.586677527287     2.909131618139    -0.489828173620
H     -1.477113829809     3.315055458404    -1.484051644143
C     -2.588009197529     1.833078559700    -0.383282546578
O     -2.990321729221     1.286337880905    -1.442994074864
O     -3.081192807213     1.454183569775     0.874908190224
C     -4.102243160452     0.446518702795     0.869270884254
H     -4.376827286409     0.190675728779     1.916199820945
H     -5.014761948539     0.808645438977     0.345693706987
H     -3.741227418291    -0.485351989323     0.378411738137
Pd     0.511567708101     2.080139507145    -0.120437125268
C     -0.561136604329     0.887801047841     2.700256437155
O     -0.174942374234     0.739929819271     1.419368897633
O     -0.625275462348     1.992544051533     3.281907758608
C     -0.956153439038    -0.438577687448     3.412413366468
H     -2.030132081021    -0.379065390705     3.625667435861
C     -0.210491356247    -0.631158057532     4.714755037749
H     -0.572036783883    -1.555345278514     5.211501196126
H      0.872991773953    -0.739970513201     4.506924796371
H     -0.379973888353     0.233250286010     5.389725479637
N     -0.733989424513    -1.613152263561     2.579214778366
C     -1.782556620631    -2.299282241924     2.041102672014
O     -2.987198859628    -2.061080123829     2.294358481905
C     -1.456879692249    -3.392206623860     1.098269949181
H     -1.935010207115    -3.149460418887     0.135292343959
H     -0.365023260790    -3.478073456765     0.964511557567
H     -1.869419293614    -4.328018761993     1.511052412789
N      2.171611416026     0.775743073849    -0.477405652968
C      3.339913270912     1.227984249249    -1.039415105163
C      4.304367377079     0.334402994008    -1.457379543138
C      4.115962103261    -1.020550970767    -1.310673171450
C      2.957450490173    -1.452627257006    -0.725564181533
C      1.995234964629    -0.511031930319    -0.300997323798
H      3.520577886506     2.289250158483    -1.151086451616
H      5.213085135041     0.705577627999    -1.902715427480
H      4.872764284677    -1.728133696203    -1.639122721513
H      2.756098805526    -2.492470575624    -0.561263419806
O      0.941781374925    -1.039619409676     0.278727498113
H      0.297859067237    -0.317409722361     0.812252103557

