# STO-3G

title

0 1
C      0.040621379838     2.423572209511    -2.213077750516
C      0.877857169862     3.457529410393    -2.689886796994
C      0.606296785015     4.075776578443    -3.928548388590
C     -0.502828460750     3.672365183941    -4.696922844845
C     -1.339220851141     2.643575176773    -4.222462519650
C     -1.068121388986     2.017313505019    -2.987432009835
H     -0.221607543656    -2.066440013817     2.628977180463
H      1.739665021461     3.785904681728    -2.110060811832
H      1.257074348978     4.872035027356    -4.285182441750
H     -0.713843772011     4.154266072979    -5.648854297243
H     -2.199525230119     2.325368748333    -4.808527785062
H     -1.717355786043     1.214037637588    -2.642628534179
C     -1.149773244046     2.546203884390     0.590674194298
H     -1.393811722027     1.918162467774     1.444936819611
H     -1.894644820293     2.584471294324    -0.198801623188
C     -0.070142488082     3.432544794657     0.582860137849
H      0.033307967616     4.123322970368    -0.239885238138
C      0.757229251664     3.760526683332     1.757929133550
O      1.697006036263     4.584737731568     1.607912543408
O      0.363987848452     3.318353432199     3.032839064865
C      1.167226579455     3.774974609760     4.130273000152
H      0.773939593292     3.346072268042     5.076571180018
H      2.224467649150     3.443567159825     4.013281406996
H      1.134545712118     4.884890992104     4.209545592498
Pd     0.498075453553     1.485200609359    -0.509175065339
C      1.315875438169     0.441246944991     2.509226039100
O      0.837707087090     0.323036856174     1.261973920843
O      2.337611434994     1.081639785418     2.823188216367
C      0.404590473604    -0.265151143072     3.571066620965
H     -0.150311365092     0.538956774449     4.069954231583
C      1.195452976147    -1.032026214249     4.607130455106
H      0.499917923758    -1.472805870743     5.350922621540
H      1.757585168032    -1.849689568283     4.112600251788
H      1.904378658960    -0.355517311937     5.127765631716
N     -0.565473965824    -1.174543056056     2.964670185675
C     -1.779056448887    -0.725348673709     2.543621128194
O     -2.178362493482     0.458779416877     2.669960711700
C     -2.673747513378    -1.707563306772     1.893821035598
H     -2.851900586197    -1.362261464870     0.862831889994
H     -2.207051460675    -2.707129655766     1.880888958768
H     -3.617251523259    -1.734466088510     2.464825750358
N      1.016886107926    -0.255417024251    -1.633434461949
C      1.580929058940    -0.172540659446    -2.880981504673
C      1.662294725325    -1.293614892508    -3.681282040986
C      1.191106116582    -2.508408536386    -3.236697549088
C      0.652973286990    -2.574422103335    -1.979568137973
C      0.595863396714    -1.410260846568    -1.184060835537
H      1.963863586777     0.773285969306    -3.244620887979
H      2.101032966576    -1.212804103384    -4.662506340545
H      1.254385418119    -3.394128286322    -3.863388710195
H      0.287608218318    -3.492180306979    -1.563644134328
O      0.089186328377    -1.592326711079     0.017365554765
H      0.312069337416    -0.769942216061     0.698116128714

