# STO-3G

title

0 1
C      1.002924466757     2.686023660475    -1.361340898258
C      2.030143092684     3.653656758926    -1.311198242598
C      2.033260952789     4.733080803546    -2.220331543116
C      1.011205562596     4.859174508172    -3.180379992099
C     -0.017345659753     3.897878938375    -3.229562871533
C     -0.021473215963     2.813730161180    -2.327785766922
H      0.359216583700    -1.738038997300     5.186365604047
H      2.826847925790     3.579266342378    -0.573610011381
H      2.827660176223     5.475349260638    -2.169035875514
H      1.012056058437     5.697217988331    -3.873638466140
H     -0.815528098409     3.989473206288    -3.963814637597
H     -0.822960100458     2.078508221936    -2.379991960513
C      1.018555639352     2.345316475107     1.723315794260
H      1.509181693319     3.296947906620     1.541671175701
H      1.544233120002     1.635351024979     2.356224169990
C     -0.323078236334     2.146217908922     1.382692875232
H     -0.825086969485     1.246806397754     1.711416749611
C     -1.206068668375     3.194275244118     0.837898022833
O     -0.790205614439     4.380664015371     0.750689761977
O     -2.455659088043     2.818404057193     0.317130500257
C     -3.226841260831     3.871198795486    -0.278138793061
H     -4.188207169271     3.457430758119    -0.651387657285
H     -3.456428032569     4.664076262974     0.469502215676
H     -2.681893212480     4.321888074959    -1.139053963708
Pd     1.037700781274     1.100973757684    -0.150163688333
C      1.324745973503    -0.953793697733     2.319576980033
O      0.911408576358    -0.685656083582     1.089138386907
O      2.232288573674    -0.317932984416     2.913102456390
C      0.600263433887    -2.089944566247     3.117960435628
H      1.390933657776    -2.753020647980     3.488815931656
C     -0.405926714454    -2.915260607535     2.341645006442
H     -0.859476026394    -3.670364195543     3.016287092011
H     -1.213396362658    -2.264166614166     1.948669156395
H      0.093245681363    -3.439076047022     1.501168221969
N     -0.059280876785    -1.509356845296     4.295371703323
C     -0.990284723215    -0.522753944506     4.239402094835
O     -1.443520490320    -0.017067198044     3.184739792480
C     -1.473603950524    -0.031717950744     5.546883970235
H     -0.607968245398     0.375590595396     6.095953465165
H     -2.226775345666     0.755665690778     5.371034766854
H     -1.919165183246    -0.882958344046     6.089779151616
N      1.349436257227    -0.171553181785    -1.829371607974
C      2.054439149945     0.250033084458    -2.928471523767
C      2.044215819115    -0.496745478013    -4.088544663252
C      1.334868932953    -1.674102526688    -4.158666851223
C      0.658956366344    -2.090868807120    -3.043720796868
C      0.701011984055    -1.309168723596    -1.869515947993
H      2.624805762335     1.170231034289    -2.891789820061
H      2.594929391241    -0.148136373349    -4.947071333324
H      1.320515636630    -2.262845878300    -5.072153301501
H      0.100312262517    -3.005564803476    -3.026369631267
O      0.041366355859    -1.823424079751    -0.855392272586
H      0.290699808663    -1.396024778375     0.087121455439

