# STO-3G

title

0 1
C      0.303775276142     2.520187391074    -0.488337340747
C      1.285596908625     3.136873844956     0.314625233859
C      1.845404296082     4.368966520469    -0.085662551427
C      1.437373025704     4.984742667602    -1.284649646085
C      0.466374443915     4.359999816091    -2.090936214903
C     -0.100123241686     3.129587917717    -1.696588910959
H      0.330589160344    -1.678419107420     3.622262632627
H      1.635423777443     2.652057820238     1.221490027005
H      2.602756903810     4.840153597905     0.538143231989
H      1.872665627070     5.934088442649    -1.588591908698
H      0.146987416849     4.822906313111    -3.022942944107
H     -0.851571776311     2.659524229393    -2.329899512248
C     -1.362765196400     1.481539726500     1.945144711787
H     -0.739130215099     2.271042789256     2.351924233756
H     -1.365568112652     0.534747967744     2.476512391281
C     -2.333363044981     1.726565034923     0.969576684603
H     -3.008941794407     0.927423873781     0.695874808404
C     -2.674731216506     3.064054035698     0.455642350186
O     -3.481097590679     3.153979617673    -0.506048970195
O     -2.045034318698     4.198226954356     0.997210201130
C     -2.326848682482     5.443886640181     0.345225237978
H     -1.766932790894     6.258521959308     0.852470482848
H     -2.001022426205     5.414347349767    -0.719103424387
H     -3.413648159457     5.681238787165     0.395191122604
Pd    -0.497425693729     0.762091164938     0.027573197148
C     -1.295238079445    -1.967383769221     1.427182795032
O     -1.631252578814    -1.092130767042     0.465263395375
O     -2.102116954857    -2.479692691052     2.234709145677
C      0.243594938190    -2.217402214546     1.571322663755
H      0.768228026148    -1.856454017100     0.684380403716
C      0.588220604827    -3.669659289167     1.814142519649
H      1.687415557525    -3.776960592281     1.920454061872
H      0.102228834331    -4.015215009988     2.750517766375
H      0.238813507013    -4.291951995957     0.964966417926
N      0.720591207827    -1.433278693009     2.719338993365
C      1.510572505990    -0.340882244739     2.583406166351
O      1.907240317103     0.135572985047     1.488385524856
C      1.892289795323     0.324731710116     3.845411802256
H      2.530073826244     1.195604377877     3.613407471984
H      0.969762849375     0.639625560871     4.360962262359
H      2.448109238984    -0.405154414191     4.460181233211
N      0.600041546568    -0.205275949428    -1.497879746269
C      1.881539428736     0.177069397241    -1.801664823202
C      2.529790886161    -0.386763415307    -2.882487632770
C      1.905263629042    -1.338745472437    -3.657354206430
C      0.636846574969    -1.726407599223    -3.313766848278
C      0.011044119615    -1.138398826189    -2.195256252823
H      2.388676498166     0.921317227914    -1.200071204136
H      3.533440246785    -0.072414334514    -3.117598294019
H      2.411566187139    -1.781403372095    -4.511064490189
H      0.102949811542    -2.477302561822    -3.861566316243
O     -1.184576051485    -1.622946460442    -1.921476758550
H     -1.519931463091    -1.412084842995    -0.952542298016

