# STO-3G

title

0 1
C      0.937412766316     2.437511865174    -0.486707210439
C      1.800248043302     2.658277511981     0.609345308833
C      2.786570727586     3.664069778617     0.532072946894
C      2.921132600358     4.447343235685    -0.630837453791
C      2.065375884790     4.217430441511    -1.724877069619
C      1.075087156291     3.214198867959    -1.656306056459
H     -1.776996963083    -1.534633928227     3.022729586155
H      1.715302172875     2.043497512634     1.501134906419
H      3.448542367160     3.829663774887     1.380241908558
H      3.682234871902     5.222514441354    -0.685839948661
H      2.162849465695     4.812963478963    -2.630829472028
H      0.427460604409     3.044003662012    -2.514479733185
C     -2.141758018662     2.357049832785    -0.645636703638
H     -1.839694567824     3.234640591611    -1.207282757713
H     -2.809595670763     1.652999122956    -1.131947282002
C     -1.918152996619     2.249797493123     0.737551189186
H     -2.402364860437     1.449301458807     1.282303344008
C     -1.357139461432     3.331231813426     1.565991210065
O     -1.187622506969     3.127187286163     2.796234200122
O     -1.007735445860     4.554801212549     0.969121432278
C     -0.344695493339     5.501220099379     1.817961114190
H     -0.108013640233     6.415519737453     1.232545088825
H     -0.995565038766     5.791477617468     2.673559006233
H      0.612645099335     5.082428759346     2.202719299493
Pd    -0.434441195176     0.985408090763    -0.390088283648
C     -2.406962976712    -1.475591786523     0.302135193188
O     -2.092133071895    -0.479193418183    -0.540018734555
O     -3.572188503286    -1.864161692382     0.539300859040
C     -1.177401958712    -2.074734357065     1.061512358243
H     -0.268645324489    -1.886218934772     0.484907810247
C     -1.309944618996    -3.556795931065     1.334741975032
H     -0.410607176378    -3.916317877856     1.875974334950
H     -2.204972854512    -3.739186522097     1.965510122691
H     -1.411866713950    -4.113247579373     0.380681070590
N     -1.032966134896    -1.385316040362     2.352086740175
C     -0.050280987090    -0.484145215573     2.584576320336
O      0.771961377085    -0.089676226885     1.712151274750
C      0.067910654793     0.048094915103     3.958361762167
H     -0.057344676889     1.142174253729     3.911657609157
H     -0.702093042202    -0.392393042307     4.614125911805
H      1.073774052820    -0.205223180276     4.333595066697
N      0.817125541301    -0.294452309154    -1.551836085412
C      2.175513728012    -0.323036648429    -1.372504729897
C      2.971310855234    -1.019332627990    -2.260710787000
C      2.412460438115    -1.692270657264    -3.325175178088
C      1.049515767243    -1.667398281581    -3.467001604224
C      0.269606227800    -0.956220766771    -2.532062450970
H      2.627055810515     0.197712473750    -0.537068563921
H      4.039112708489    -1.030049529618    -2.115368163545
H      3.036172455041    -2.238252176680    -4.028040345595
H      0.549712090475    -2.184012222287    -4.262126903235
O     -1.033889278578    -1.028328913029    -2.738050830031
H     -1.605798318056    -0.758352481747    -1.911289997992

