# STO-3G

title

0 1
C      0.399807918478     2.457818178692    -0.778527497995
C      1.140518307822     3.376839280430    -0.007622903391
C      1.709003553706     4.509075866517    -0.628508121924
C      1.548453536609     4.722121726250    -2.011362001441
C      0.821273084859     3.792396075230    -2.779260348118
C      0.247611516534     2.658048822256    -2.166827772553
H      0.065561880185     0.648784950727     2.873551916784
H      1.308035440464     3.201896467713     1.052005112021
H      2.281951186824     5.214945893240    -0.030457637538
H      1.989603699801     5.596245838996    -2.484828407491
H      0.698379107594     3.942469965030    -3.850265009006
H     -0.309716063361     1.945728997049    -2.773732194866
C     -1.737272178919     1.956720858424     1.438167493257
H     -1.307091295757     2.919199934326     1.695127980734
H     -1.840962761869     1.227644796383     2.234418748985
C     -2.432019896294     1.741755225270     0.244032933541
H     -2.956528413054     0.805586169772     0.104219927713
C     -2.732569992779     2.792970837833    -0.743261183520
O     -3.282356069681     2.464725340615    -1.826467546427
O     -2.378059321368     4.125558090775    -0.471439467283
C     -2.594465932353     5.062620079942    -1.534982582520
H     -2.264754318981     6.071789599026    -1.207115296909
H     -2.000566764170     4.782759860986    -2.434219623574
H     -3.673740599480     5.116166847106    -1.803515049811
Pd    -0.357177392516     0.831912881837     0.098922356646
C     -1.426845969375    -1.727192327278     2.036889768001
O     -1.317109740007    -0.984056739348     0.925510753255
O     -2.219836173706    -2.683309959908     2.167790814362
C     -0.448615242718    -1.379720091873     3.219429162262
H      0.099539576959    -2.309825271209     3.413542851465
C     -1.190188866135    -1.033700199376     4.493454516142
H     -0.460228338820    -0.857117511578     5.310819079476
H     -1.787468304446    -0.112435707960     4.347023343668
H     -1.864876257602    -1.865669699735     4.785884322198
N      0.470200971347    -0.282901297659     2.921893170260
C      1.707352092900    -0.316311441082     2.358627291758
O      2.266503899066     0.710942909623     1.894866274779
C      2.410775231812    -1.614634444299     2.297287225323
H      3.403027339653    -1.449491543616     1.839855242527
H      2.529916021670    -1.989573692651     3.327261212650
H      1.825740464709    -2.307249991472     1.668153390322
N      1.064253256191    -0.360043051552    -0.906289541992
C      2.345052891016     0.073425154042    -1.139379931197
C      3.203548721111    -0.693828236134    -1.901073639504
C      2.787427018043    -1.891975578037    -2.436324008417
C      1.511247961112    -2.313273708177    -2.172113055141
C      0.665213150380    -1.513578037850    -1.375426712621
H      2.689932310874     1.014835645769    -0.729767034587
H      4.204902709906    -0.339098824714    -2.082717386139
H      3.458368083175    -2.493186579508    -3.044147850896
H      1.129723742804    -3.242851769966    -2.545598243718
O     -0.521070043528    -2.036945931762    -1.150500770149
H     -1.040906899070    -1.632253880717    -0.326026859070

