# STO-3G

title

0 1
C      0.525058586895     2.477253864371    -0.797003726414
C      1.396190491751     3.302401677112    -0.052989981195
C      2.022864299974     4.406868545783    -0.669191177664
C      1.786942906191     4.693473057254    -2.027323498614
C      0.923603703307     3.865828058871    -2.771588714314
C      0.296483714798     2.759687478956    -2.161713999477
H     -0.656873695006    -1.278545396603     4.083350330875
H      1.600289699854     3.090770883498     0.994428234607
H      2.692474282509     5.037646621863    -0.087460316555
H      2.271303070811     5.544910398023    -2.499988286249
H      0.738594385861     4.072736777575    -3.824108852350
H     -0.361860008131     2.124439082839    -2.752489182459
C     -1.323261000404     2.056444366153     1.696626746082
H     -0.716815701312     2.918526657543     1.953936439583
H     -1.360460247393     1.234540177527     2.402499505142
C     -2.216907255525     2.070048911456     0.622702044645
H     -2.890728470851     1.234600642072     0.488292060177
C     -2.489533294249     3.251027888552    -0.214523723979
O     -3.267651150119     3.132026742287    -1.196067201521
O     -1.854260650948     4.470935375089     0.077125187129
C     -2.044542555410     5.520908606675    -0.880702958937
H     -1.486391572538     6.423464316530    -0.551850201298
H     -1.652355193398     5.219272208039    -1.878426538361
H     -3.122104043874     5.787296956752    -0.969421713945
Pd    -0.352887645820     0.896692720678     0.052519102269
C     -1.017312055700    -1.920691145729     1.103492223021
O     -1.378548039284    -0.682079058658     1.149367813994
O     -1.135148759666    -2.677388440997     0.071289809309
C     -0.299318647167    -2.495347844076     2.357950170197
H      0.642114588924    -2.918492553854     1.987597504504
C     -1.088955407043    -3.589340090053     3.043096411070
H     -0.507833242953    -3.981848922907     3.903134416693
H     -2.048746462027    -3.176705084195     3.414924627501
H     -1.292070504006    -4.417710489196     2.333012278961
N      0.001462410956    -1.450240551083     3.333768907712
C      0.970576778048    -0.525674163134     3.096139936982
O      1.672457274207    -0.466969815837     2.057668784353
C      1.186908134076     0.461106391071     4.176825834289
H      1.992790621263     1.151763371155     3.873218235758
H      0.243728209822     1.004785893372     4.345241335196
H      1.479213269386    -0.093431569843     5.085806886526
N      0.944102661246    -0.303470468859    -1.090009583025
C      2.286568462792    -0.033025320701    -1.028264472810
C      3.138785848940    -0.549545644959    -1.983678769531
C      2.654807308042    -1.351665149167    -2.992587003475
C      1.316363598174    -1.643227740781    -3.005992122244
C      0.477751137282    -1.113367179299    -2.000095242001
H      2.675636746856     0.608967343856    -0.246860894886
H      4.189055953073    -0.315227982138    -1.935800406276
H      3.321031061018    -1.757405991113    -3.749066054163
H      0.880528451992    -2.286247320451    -3.743697798987
O     -0.781839265569    -1.510031483048    -2.054087775963
H     -1.130622402863    -1.953093243266    -1.137062829598

