# STO-3G

title

0 1
C      0.645177966222     2.754862988837    -1.047055508658
C      1.491824438048     3.741059981834    -0.497454407685
C      1.609794879344     4.999170958374    -1.126270982839
C      0.885182659689     5.280215503423    -2.300097607908
C      0.040057026574     4.295617627641    -2.847743233032
C     -0.079309619220     3.034944319012    -2.226925795523
H     -1.220415259334    -1.042459035822     2.161374654781
H      2.062985476526     3.545273651836     0.407836621412
H      2.263719952927     5.754183426306    -0.694421770842
H      0.976340640700     6.251801812807    -2.779934427239
H     -0.527378041306     4.502272951638    -3.753205151632
H     -0.738251125558     2.284827329631    -2.662133520360
C     -0.155018166420     1.721468335669     1.777165834447
H      0.269503922870     2.701754769275     1.960446762675
H      0.202824341744     0.909167412816     2.398884990797
C     -1.315807273653     1.556870845478     1.022483232612
H     -1.801445559055     0.591917977645     0.987680730493
C     -2.111893574946     2.665198460539     0.469413676691
O     -3.026786969706     2.397676283133    -0.353119901858
O     -1.721535856861     3.992415595418     0.724703013352
C     -2.453392200092     5.007407760034     0.024735359844
H     -2.054112275233     6.005814798828     0.303534387378
H     -2.340226707304     4.886211093748    -1.076274770487
H     -3.533407684123     4.973401522114     0.293829434193
Pd     0.519164043293     0.942396908122    -0.217364807763
C      1.098399541713    -1.639644558482     1.557416468759
O      0.233513859531    -1.057483325301     0.690887051762
O      2.324134431349    -1.767971063300     1.379169064427
C      0.391406082923    -2.134902037561     2.857821734278
H      1.113478461032    -2.039959861099     3.675241673105
C     -0.038132768777    -3.581888269494     2.746623562083
H     -0.504679236783    -3.906309625116     3.698851109039
H     -0.789116284284    -3.680193831101     1.934522740119
H      0.836364388960    -4.228923057395     2.526761623165
N     -0.802452365391    -1.310434792223     3.050924155490
C     -1.316157397908    -0.688399821827     4.141547509777
O     -2.249702721173     0.149553271880     4.065830623469
C     -0.738478973462    -1.027733457150     5.459958912295
H     -1.313820529141    -0.490346418211     6.235275782008
H     -0.837712059131    -2.115930655222     5.604358285545
H      0.314658301903    -0.703565741792     5.482071964791
N      1.481012998478     0.099271515157    -1.905524542434
C      2.411356330119     0.785666165857    -2.644314499441
C      2.860134220298     0.273636044854    -3.844539241769
C      2.390230389843    -0.933147022532    -4.311405570893
C      1.482851683084    -1.615093113511    -3.546413902816
C      1.055853057927    -1.067462082202    -2.318461023986
H      2.799291247510     1.733250137458    -2.291269862782
H      3.584226307945     0.827819980158    -4.419061441868
H      2.739386924486    -1.339433954006    -5.257023121065
H      1.092068340820    -2.568677792453    -3.841106906275
O      0.213651264857    -1.825758520392    -1.650020331876
H      0.125690914748    -1.561777670731    -0.636131084548

