# STO-3G

title

0 1
C      1.150758516791     2.948755919779    -0.669831048813
C      2.390686501203     3.239107365684    -1.274606952373
C      2.535286038808     4.407695021547    -2.053170351292
C      1.445848679086     5.281866916344    -2.230782087251
C      0.206178059270     4.981489827286    -1.632393333749
C      0.051461206505     3.816012912930    -0.852730039576
H     -1.504068415195    -0.782277687544    -0.733925703258
H      3.236498744733     2.562490648795    -1.161314386388
H      3.494354487889     4.626366355457    -2.519044269593
H      1.560568757030     6.182271059498    -2.830037204512
H     -0.642825623175     5.647818396142    -1.772464478968
H     -0.916853744810     3.575368845148    -0.418873400456
C      2.155830889192     2.027391807507     1.979745578821
H      2.545055145804     1.125487614212     2.445007113567
H      2.861193276609     2.633935120272     1.423092365448
C      0.875406322584     2.513132331784     2.287692321669
H      0.567492761368     3.476893811748     1.909667029387
C      0.024672746814     1.966790238631     3.360508474495
O     -1.120928681566     2.460346620158     3.531586862071
O      0.556391393731     1.028688643096     4.264284983339
C     -0.316669638933     0.605627166327     5.320400492995
H      0.214773985264    -0.128991352829     5.963063941232
H     -0.616507341441     1.469622194428     5.956082679944
H     -1.225762922560     0.113287814520     4.909118669114
Pd     0.833893816374     1.285252776355     0.393483010685
C      0.028018064642    -1.565127880828     1.205151161504
O      0.261910472653    -0.376011340665     1.667666050956
O      0.930325156301    -2.346277977551     0.730083914241
C     -1.496784255493    -1.886105302540     1.046809879409
H     -1.980414330653    -1.851878504804     2.027934749439
C     -1.791689008849    -3.215266887149     0.392244107519
H     -2.888852125128    -3.337332326763     0.282804375871
H     -1.329455779879    -3.243164402146    -0.616559992211
H     -1.385222040770    -4.044016500373     1.007188368062
N     -1.990425978357    -0.812919230121     0.162395280291
C     -2.399131502583     0.436692485717     0.527919945001
O     -2.192419420083     1.446500757852    -0.194307340731
C     -3.162143433302     0.572967161668     1.783903114579
H     -4.021542019747    -0.116254209540     1.736847673761
H     -2.495858767281     0.342071566492     2.627962906157
H     -3.512028525881     1.618068789872     1.872166600002
N      0.851448970116     0.201967825733    -1.475226814853
C      0.175874805936     0.754311639910    -2.533551117432
C      0.623260245555     0.546043160203    -3.823026635394
C      1.737532248237    -0.225073133164    -4.063259996249
C      2.377763476330    -0.794704816580    -2.994575385037
C      1.882917737021    -0.576345193016    -1.690008958266
H     -0.696650183829     1.371797729706    -2.357867435945
H      0.091674345050     1.000294863151    -4.642614898302
H      2.093053316071    -0.387467718688    -5.077128893295
H      3.235146591741    -1.425464964042    -3.115417313369
O      2.550567410583    -1.203937322993    -0.744034259277
H      1.975476461199    -1.616811847366     0.048218325492

