# STO-3G

title

0 1
C      1.657420234364     2.981105759342    -0.925468305898
C      3.064158368593     2.855814549802    -0.900355988294
C      3.879877083622     3.882028820447    -1.419511992921
C      3.300398159415     5.039689178250    -1.975819906091
C      1.898862440760     5.166711669688    -2.006706293354
C      1.078648596403     4.144435081064    -1.481682192619
H     -3.737236657045    -1.049475104366     0.402724267415
H      3.527649237102     1.964470590477    -0.480418831351
H      4.962568195825     3.773362356408    -1.388303187416
H      3.932096706197     5.829477082348    -2.376025752455
H      1.441947514300     6.057777583592    -2.433305403724
H     -0.002933259019     4.265430260589    -1.516061978908
C     -0.607416021793     2.761435494611     1.317941052702
H     -1.428029676818     2.143144119937     1.666138444063
H     -0.871887790327     3.645986588100     0.745952769499
C      0.695039836425     2.601941365188     1.781843076650
H      1.445693183023     3.335590138852     1.533940614110
C      1.121402034995     1.626809523098     2.802590361005
O      2.342790461948     1.570944980393     3.100480278277
O      0.191480077160     0.733478573181     3.358684408350
C      0.715612735450    -0.213646927782     4.300064103036
H     -0.110990999870    -0.852340703536     4.678445088838
H      1.470483483724    -0.874781968989     3.816064439111
H      1.178037567732     0.305735993459     5.169725071880
Pd     0.459508407662     1.519366890073    -0.263250120034
C     -0.939526178105    -0.896647157258     1.083643389233
O     -1.049670571169     0.094366793393     0.272629314564
O      0.165629382414    -1.532464021679     1.315466713948
C     -2.218033244886    -1.294610586510     1.862312377260
H     -2.095358847853    -0.910572947956     2.882453954362
C     -2.445205928038    -2.789093622053     1.923645722483
H     -3.364772912492    -2.997710941040     2.508611993278
H     -2.576644736149    -3.186151972315     0.896889947429
H     -1.583366139598    -3.290658789462     2.410087048554
N     -3.397039975269    -0.668577772969     1.277030083422
C     -3.762503118729     0.593448490514     1.625769976978
O     -3.198850775266     1.288571555713     2.504229751828
C     -4.919105215726     1.145759305434     0.890160993089
H     -5.130873137491     2.159291636748     1.272598332452
H     -4.652922773908     1.177682257244    -0.178997710776
H     -5.781178418890     0.477997738970     1.060622537171
N      1.201014461960     0.332231195174    -1.804017563378
C      1.190095106789     0.796901824136    -3.092392277843
C      1.888763504087     0.129755093046    -4.075798472889
C      2.602221788546    -1.008233259407    -3.776884290346
C      2.590579456747    -1.462624568355    -2.485569743427
C      1.856998406498    -0.764281038876    -1.498803841244
H      0.635306853695     1.694765517427    -3.338384768856
H      1.878994089914     0.509758268104    -5.084027748080
H      3.158924090468    -1.534962954215    -4.547395305140
H      3.122780729671    -2.344842765078    -2.190431936931
O      1.924219977057    -1.297072772951    -0.312251228941
H      1.121373391048    -1.294310471530     0.481196736363

