# STO-3G

title

0 1
C      1.201849983861     2.862086436296    -0.891787694206
C      2.173568394129     3.445638909538    -0.048967240358
C      3.080435029660     4.389207949697    -0.577214440471
C      3.022629511267     4.751722888489    -1.937003452450
C      2.056517657519     4.161754437688    -2.775013341677
C      1.146522487409     3.216080131322    -2.256306740489
H     -0.342754708223     0.709473321621     2.908005455923
H      2.247621965631     3.148293704693     0.995098918123
H      3.830014009253     4.834646434545     0.074053618800
H      3.721879453072     5.481028124570    -2.339849277846
H      2.008058534191     4.430346439509    -3.828747515572
H      0.411565205506     2.759932275268    -2.918289214241
C     -0.984639216298     3.051293842367     1.190088031785
H     -1.420346223282     2.485724838170     2.007491195557
H     -0.135059750690     3.682002654293     1.423783133066
C     -1.637833122345     3.147416205608    -0.040939254612
H     -1.257684875922     3.821851979233    -0.793824148463
C     -2.972666179475     2.589465071958    -0.325520797648
O     -3.407738650303     2.658244633205    -1.504935059011
O     -3.782043632746     2.124429278821     0.726672795109
C     -5.035911803381     1.545173475890     0.341431007575
H     -5.578407886342     1.206525388891     1.249830080738
H     -5.672083958673     2.291320940533    -0.186495002123
H     -4.874905502853     0.661292954150    -0.316897616610
Pd    -0.075281469273     1.511967909506    -0.147395272421
C     -1.363170648321    -1.006592264794     1.148185635341
O     -1.526828064291     0.245789544198     0.854526070218
O     -1.430497214812    -1.961061608293     0.293845181359
C     -0.908250124576    -1.287086875419     2.611303149061
H     -0.464435684824    -2.285251317505     2.660032752466
C     -2.043878641097    -1.212598069685     3.606033087182
H     -1.649908623719    -1.384304222447     4.628983805522
H     -2.506393302086    -0.203832435768     3.568150304034
H     -2.810006649920    -1.979943484438     3.371909704542
N      0.061152200915    -0.226163712391     2.941785075138
C      1.385275574528    -0.195727820959     2.618302819816
O      2.013169312164     0.874689903451     2.413692112055
C      2.104026189740    -1.484512494924     2.531276515262
H      3.177949062531    -1.274101856681     2.381153126663
H      1.954272251683    -2.020894087183     3.483302180379
H      1.713225837524    -2.053719386333     1.670530739435
N      1.170633681431    -0.022378618824    -0.938620803682
C      2.530606104482     0.125284783253    -0.823749136593
C      3.378644920335    -0.607770928687    -1.627654924102
C      2.875868549471    -1.486600525934    -2.558676344637
C      1.518315317999    -1.643150117152    -2.634606261731
C      0.678136754079    -0.899803368939    -1.775381036506
H      2.945873888084     0.812694621405    -0.098557379980
H      4.443516969058    -0.469993969441    -1.534797519654
H      3.539970957559    -2.053681656863    -3.205567086192
H      1.063187662145    -2.328634034594    -3.321458963379
O     -0.604541690554    -1.176281583544    -1.897257034990
H     -1.129180399531    -1.427684842490    -1.003318661335

