# STO-3G

title

0 1
C      0.292151912039     2.874507287080    -0.767740913614
C      1.610689827560     3.370359276119    -0.880101461575
C      1.838111766428     4.718921121199    -1.221928011940
C      0.753324330892     5.584402775120    -1.465030202509
C     -0.561330682599     5.092260434389    -1.362503642186
C     -0.793816898258     3.743849429810    -1.014527159149
H     -2.301825462577    -2.789042415064     1.653133691168
H      2.461031570639     2.713223116250    -0.704465476226
H      2.859901561681     5.085723039881    -1.300460567667
H      0.930924753493     6.623735707378    -1.731663524683
H     -1.406807440855     5.752313024076    -1.547397825945
H     -1.820037308351     3.389736861807    -0.936407017159
C     -1.387847708151     1.344709246672     1.415666637760
H     -1.963479686645     2.239940299508     1.207617182726
H     -1.911266143324     0.395389694678     1.372774513822
C     -0.106694734904     1.399128556709     1.959323720344
H      0.361564544342     0.490832184451     2.311802642665
C      0.573146417361     2.644152150157     2.356268766759
O      1.786141582712     2.594492648254     2.687169131307
O     -0.109249757524     3.869640154344     2.249287432497
C      0.676371897383     5.046012253763     2.484197938164
H      0.036700636830     5.945823872329     2.361528656065
H      1.090136480669     5.046794310403     3.518050954544
H      1.510951081744     5.114739071404     1.750042686481
Pd    -0.007545389089     0.948202883807    -0.317110588002
C      0.369334076426    -1.908009941611     0.789453099535
O     -0.473576789193    -1.100839677874     0.243907485633
O      1.648370347876    -1.877147898027     0.609454255522
C     -0.182728458660    -2.963907261984     1.773988803899
H      0.508592695752    -2.988462476815     2.622274474277
C     -0.257524285212    -4.345413031637     1.160610787817
H     -0.627439291291    -5.065553633034     1.919583792556
H     -0.962288116696    -4.334320632706     0.304398619517
H      0.746470182908    -4.666414731874     0.813528151627
N     -1.510855710216    -2.597936036351     2.255020141421
C     -1.626318165019    -1.682745860774     3.257311705618
O     -0.652248421376    -1.104651947632     3.795413356808
C     -2.991878471585    -1.374063821728     3.735592957296
H     -3.026185317407    -1.626874672599     4.808569465675
H     -3.158775898497    -0.294239714077     3.595076527262
H     -3.744073849703    -1.964295364673     3.183545750064
N      0.822101727073     0.500420422964    -2.171586724457
C      0.254463924159     1.040831723053    -3.294771435636
C      0.894194657729     0.941214946744    -4.511676152412
C      2.108410228079     0.301619656397    -4.612690707363
C      2.654899843894    -0.238544161380    -3.479740780720
C      1.972179803001    -0.129594655173    -2.246444030059
H     -0.699048791903     1.551237064364    -3.225705214477
H      0.440718206700     1.376348389166    -5.386928718500
H      2.620127846868     0.225664934931    -5.568426833366
H      3.596795452053    -0.749873179905    -3.492677612460
O      2.593294878899    -0.678849322791    -1.244281249835
H      2.114136125720    -1.143286847152    -0.330616937203

