# STO-3G

title

0 1
C      1.550674579744     3.349450591388    -0.340552604853
C      2.641603342601     3.117544582989    -1.206232692796
C      3.250029896464     4.192778622840    -1.887118823248
C      2.770259510676     5.506194511906    -1.717756471818
C      1.677028368333     5.740183574917    -0.861770735093
C      1.070459372473     4.668377134890    -0.172710023387
H     -0.837166558681    -3.146042510928    -0.084180150618
H      3.013852993950     2.106706605035    -1.364325364073
H      4.090919641850     3.999789039329    -2.550712728339
H      3.239919321701     6.333138441734    -2.245457510256
H      1.297016447290     6.750998295777    -0.725535768821
H      0.227679174999     4.873236985068     0.486707790483
C      2.243713320685     1.659259996700     2.115674325611
H      2.184108187327     0.611481572192     2.398786746882
H      3.115478672569     1.952132957736     1.539386949009
C      1.365693097319     2.622598511500     2.625644442615
H      1.545281242900     3.664716930480     2.406770961204
C      0.368991741934     2.366201278093     3.681311656512
O     -0.394160655427     3.306983771112     4.023237633287
O      0.362505108060     1.132185430968     4.356531904129
C     -0.690767815063     0.949091764264     5.312387003381
H     -0.599178568143    -0.058075631331     5.772540487358
H     -0.627120164299     1.709256427911     6.123865344874
H     -1.686671590733     1.015936503052     4.817811611947
Pd     0.619039088202     1.860154710796     0.622685522505
C     -0.238506712449    -0.835688332937     1.416964400403
O     -0.519953713713     0.396585585079     1.666751345818
O      0.895735889171    -1.250431108221     0.941920728262
C     -1.398107206370    -1.856937383548     1.504479414288
H     -2.313126204703    -1.312933531692     1.747428927217
C     -1.162952090611    -2.965067005691     2.505689038096
H     -2.025567798133    -3.662608636102     2.489519241515
H     -0.244516911870    -3.524789933459     2.233236051967
H     -1.051494992172    -2.539990601811     3.523963309601
N     -1.525343521403    -2.444566063679     0.167842947307
C     -2.124666514946    -1.732839670268    -0.833393373696
O     -2.725165788887    -0.642974740471    -0.678242957128
C     -2.053219061254    -2.348268300726    -2.175516127187
H     -2.541816329558    -3.335103085363    -2.118396590342
H     -2.577420902918    -1.689656156636    -2.889241838362
H     -0.990096390890    -2.450666571937    -2.452550839063
N     -0.015136425023     1.149291337683    -1.254563441203
C     -1.046428072222     1.754509270593    -1.920780382793
C     -1.246466314503     1.491691851319    -3.261840743424
C     -0.430774269544     0.606004114473    -3.930628623708
C      0.565120537565    -0.020103258743    -3.227059997507
C      0.727620103430     0.265290618699    -1.854653321709
H     -1.682510851162     2.462469932281    -1.402512531531
H     -2.052852749699     1.982687637970    -3.780740493479
H     -0.584139733815     0.396573709762    -4.985758688032
H      1.218695637486    -0.738303255038    -3.679502913605
O      1.681272489751    -0.429214550088    -1.254863617885
H      1.490532453370    -0.668530748061    -0.243006604118

