# STO-3G

title

0 1
C      0.863295940907     2.832220580367    -1.479962378690
C      1.888866327734     3.020375551614    -2.440396549120
C      1.740351067015     3.957353128175    -3.481560537577
C      0.556661138048     4.714539321761    -3.596026440587
C     -0.475361615253     4.529745460245    -2.659925835438
C     -0.322731610470     3.600863074918    -1.605863090111
H     -0.501263591247     0.224893199268     0.703935880851
H      2.805235640235     2.436586527872    -2.382658587346
H      2.543027652600     4.090844217313    -4.203684673123
H      0.441436098611     5.432219914900    -4.404287817941
H     -1.397256049405     5.101662433175    -2.740027625105
H     -1.139808875926     3.493591177707    -0.892843195069
C      1.996933994845     3.041333095858     1.403827028782
H      2.590259727139     2.426400861776     2.072686615078
H      2.519590768910     3.685683184358     0.703152292098
C      0.614985948620     3.147430283792     1.545753714768
H      0.081391992579     3.845816578415     0.919178931745
C     -0.167768199342     2.631670585114     2.683841556153
O     -1.386424346620     2.941989291746     2.746271418174
O      0.470357739427     1.947365960910     3.731057912429
C     -0.372587030444     1.542620839455     4.819676798285
H      0.230499957435     0.973372769886     5.559680196291
H     -0.809505670984     2.429117271528     5.331716514489
H     -1.197677846249     0.883029367999     4.465046319277
Pd     1.199278965757     1.500185427164     0.013359821900
C      1.359491851501    -0.758839396429     2.344745701973
O      1.805152405716     0.189827795892     1.519216165978
O      2.100653935988    -1.367621568468     3.152364367275
C     -0.149456975952    -1.169021495268     2.267715958210
H     -0.531817675201    -1.194948072952     3.292519772078
C     -0.310673141300    -2.555518630440     1.674245296395
H     -1.375851694799    -2.862421943189     1.730107524253
H      0.000980782456    -2.539816610183     0.610557883892
H      0.303945113899    -3.290215334693     2.234817587475
N     -0.963866953173    -0.246547268207     1.475000273229
C     -2.285829969415    -0.033760409821     1.715992107642
O     -2.924638515347    -0.520092636544     2.677516085240
C     -2.984516503503     0.806335462350     0.717325912395
H     -2.883313073030     0.319475730205    -0.267738196910
H     -4.047826313096     0.872593572215     1.007574677523
H     -2.529829322572     1.809102018479     0.721638794182
N      1.132756802600    -0.154377715959    -1.280521858915
C      2.095231869878    -1.113842414794    -1.090886808627
C      1.989843981731    -2.329735159285    -1.736353870256
C      0.925407561451    -2.589973161263    -2.572230423031
C     -0.012600596707    -1.607106912712    -2.753323408752
C      0.136404863305    -0.380333898314    -2.078500297813
H      2.943009702356    -0.918144933968    -0.445064909830
H      2.745974402211    -3.081433247815    -1.575078913517
H      0.834197707618    -3.548361467003    -3.076779750967
H     -0.865124201740    -1.743529597626    -3.388620102847
O     -0.833321419541     0.496291346733    -2.314524561944
H     -0.616899931276     1.403517254576    -1.970666290561

