# STO-3G

title

0 1
C      1.203494944773     2.774329963067    -0.280703104017
C      2.604175220363     2.894375640037    -0.155226085149
C      3.225171238687     4.154093868850    -0.286940194026
C      2.456445628850     5.303392873695    -0.555332772266
C      1.060113321933     5.186248340125    -0.691916973533
C      0.434295426191     3.928583311165    -0.556594564112
H     -3.007906568763    -2.358132999770     1.196620443855
H      3.217676183363     2.014544681730     0.030445897355
H      4.306173881113     4.231156268898    -0.186359068963
H      2.939139842375     6.272514211284    -0.658569524241
H      0.456324950396     6.067585110225    -0.900254363756
H     -0.649281967688     3.866174048527    -0.653984340850
C      0.686725079181     0.788473466944     2.058241900926
H      1.567693616813     1.369617056220     2.310569195974
H      0.778011007232    -0.290490126054     2.130515102726
C     -0.571301815984     1.372020615095     1.925623807304
H     -1.430871238161     0.728873020593     1.804752894640
C     -0.870209217257     2.781756499762     2.224251251484
O     -2.015983009410     3.225840831227     1.950690983323
O      0.142952364977     3.620174362620     2.720489884205
C     -0.214685567099     4.995446380751     2.912460110014
H      0.666274380273     5.552213146170     3.298258235111
H     -0.522336063224     5.462328538699     1.949859054103
H     -1.040565899390     5.090329942076     3.653234062323
Pd     0.315896292818     0.986056739046    -0.160854257085
C     -0.192097487657    -2.011609275382     0.262099488002
O     -0.764187382632    -0.879617883224     0.034507318308
O      1.033770847169    -2.297169759648    -0.028915733706
C     -1.013562589668    -3.098940504930     0.993632320856
H     -0.335111215579    -3.561167323396     1.717871828868
C     -1.530545249316    -4.166389510750     0.053708311670
H     -2.082141204761    -4.933540724438     0.635685577323
H     -2.223135356352    -3.709146923354    -0.682172543429
H     -0.686428929177    -4.650807814974    -0.479362647777
N     -2.145128854898    -2.514029095870     1.702493348580
C     -1.925034107232    -1.826822731749     2.855572344425
O     -0.798335136269    -1.674174799124     3.383917696115
C     -3.122464007039    -1.240947382680     3.492680222144
H     -3.819561672169    -2.065814703335     3.716646831008
H     -2.812751203174    -0.730020819913     4.420824121798
H     -3.578147577754    -0.525316550675     2.786958477859
N      0.852742935048     0.720134319936    -2.161513994216
C      0.391133853776     1.588929547133    -3.113930357642
C      0.940139284797     1.585827161486    -4.378685850578
C      1.955592020843     0.713299299618    -4.698104708042
C      2.393977759582    -0.155298535373    -3.734560886035
C      1.804563785983    -0.135798794016    -2.450150789193
H     -0.405853977934     2.281927235197    -2.872058344519
H      0.573492102288     2.278959947954    -5.117777246494
H      2.395983080591     0.711255269713    -5.691633323708
H      3.177921354598    -0.861604419557    -3.921691809828
O      2.301632991056    -1.007523776674    -1.617428636367
H      1.709420777337    -1.513542908144    -0.811131163096

