# STO-3G

title

0 1
C      0.247350581489     2.433211813939    -2.345705551582
C      1.106371408852     3.543409033879    -2.510721908609
C      1.062583869453     4.303061889048    -3.698669107344
C      0.160748124852     3.965176031993    -4.726330211677
C     -0.695556128448     2.859261782727    -4.563912737078
C     -0.650723505987     2.091571692247    -3.380501955918
H     -1.383357456056    -0.669821311611     2.250316761323
H      1.812029137896     3.821248925420    -1.728619200297
H      1.727908150285     5.156519282124    -3.815020679758
H      0.124952430271     4.555534775377    -5.639011281635
H     -1.394465761497     2.589424196610    -5.353480751684
H     -1.308408786561     1.229319565623    -3.279746921843
C     -1.454730532137     2.197063492592     0.232332551957
H     -1.737094156469     1.468673313124     0.986800395093
H     -2.105789109418     2.285212637547    -0.631380437698
C     -0.441889517089     3.128739940227     0.464348261502
H     -0.274884653317     3.907573336960    -0.262494575574
C      0.231576072664     3.346396399315     1.756855473464
O      1.131956039105     4.223417122217     1.817555064976
O     -0.253655161266     2.708426139921     2.909757568195
C      0.444231777872     2.999912646850     4.129211246518
H     -0.023181208630     2.437036006764     4.966925850240
H      1.511603760171     2.689431754995     4.058273209958
H      0.387898165270     4.085224982291     4.369998783210
Pd     0.366424588334     1.302286585268    -0.695583697365
C      1.071467110954     0.056376891769     2.113296267775
O      0.281261940036     0.006283236484     1.012936780000
O      2.170158882694     0.640100988673     2.158795889603
C      0.417594682058    -0.648966042660     3.327607969379
H      0.724474717486    -0.136434356595     4.243572901874
C      0.808827976846    -2.107991192210     3.422509151932
H      0.352583160526    -2.550496671564     4.332279043833
H      0.426886940913    -2.652099230091     2.534126788320
H      1.912218351201    -2.207936687414     3.481931454596
N     -1.037858157387    -0.569220805001     3.199511777392
C     -1.817760973418    -0.065412005735     4.192543966339
O     -1.413089531704     0.259656665406     5.333253714569
C     -3.248863176290     0.081532649940     3.852341237437
H     -3.782221897470     0.467062768815     4.738796423328
H     -3.322204996387     0.794813443378     3.016370109757
H     -3.636618902569    -0.911036913148     3.565512950468
N      1.280279986565    -0.247426551794    -1.825705743721
C      2.115544010439     0.024132341539    -2.879776377031
C      2.511614096242    -0.988183399993    -3.729532885482
C      2.085467883137    -2.281327687760    -3.526427837740
C      1.272982586812    -2.534928043193    -2.454019936846
C      0.897816089539    -1.477282059094    -1.599474028310
H      2.468811992024     1.033496381893    -3.051036796520
H      3.162133605693    -0.759617551983    -4.558149140374
H      2.395034007672    -3.081696182272    -4.193441151921
H      0.921612137324    -3.522062416819    -2.227532175382
O      0.144094556264    -1.843683626616    -0.581794643035
H      0.096442193573    -1.120608518861     0.181305005711

