# STO-3G

title

0 1
C      1.861331610773     2.822450098354    -0.505019162181
C      3.237237959648     2.561358069253    -0.688008290468
C      4.128431618273     3.613669780550    -0.984063559798
C      3.654150168423     4.933681298059    -1.112928776211
C      2.281207048234     5.196398047724    -0.944339483604
C      1.387100257862     4.147330037236    -0.640319340516
H     -2.565812471604    -1.656802223557     2.222328101853
H      3.617502172535     1.543451900329    -0.619522985127
H      5.186135412216     3.397036139103    -1.121377325543
H      4.343320703085     5.742647484990    -1.344347006130
H      1.904528838885     6.212698801534    -1.045202302079
H      0.329867234088     4.376304702433    -0.512527530675
C      1.090822396219     1.241026775674     2.104171992308
H      0.792446170425     0.258846135390     2.456969251137
H      2.157695021575     1.443535040379     2.101740266974
C      0.183974812541     2.274855966316     1.881637825483
H      0.560075969444     3.262727316856     1.673479545657
C     -1.266534666062     2.219125374332     2.134750215903
O     -1.740378701500     1.371276080428     2.931927340094
O     -2.068048155058     3.236471532296     1.588539491756
C     -3.470301249533     3.147400963282     1.880164954042
H     -4.004926592736     3.989999049487     1.391283952750
H     -3.895006253393     2.192609988189     1.493183277604
H     -3.651398773570     3.211454740850     2.977486668323
Pd     0.631229378449     1.284934505422    -0.124660789636
C     -0.154476727927    -1.573793040240     0.456414113635
O     -0.650559105162    -0.384849866235     0.374622872551
O      0.938907890997    -1.970976129685    -0.104334167986
C     -0.891260499592    -2.624899588362     1.315412389744
H     -0.112676581522    -3.269110061344     1.735010577085
C     -1.842281042132    -3.470650959341     0.495509365508
H     -2.309115691852    -4.237153777257     1.148200665020
H     -2.640227745028    -2.825521348762     0.074443807456
H     -1.296184074645    -3.976421471841    -0.327348231207
N     -1.641117208905    -2.023239006174     2.410311315929
C     -0.967934443316    -1.609512618358     3.522958653104
O      0.282824890490    -1.651315978367     3.633755750360
C     -1.777264697680    -1.179771008209     4.683848283741
H     -2.848629024909    -1.182853713581     4.423008437308
H     -1.574250722950    -1.884226026980     5.505561992481
H     -1.455795065197    -0.161769806929     4.960857950768
N      0.678139510292     0.943504189734    -2.179867429792
C      0.088477771013     1.856417648637    -3.011992903786
C      0.327771907567     1.811075862422    -4.369247872218
C      1.159546905036     0.850990067706    -4.901046759102
C      1.729866057652    -0.059127307585    -4.051207612922
C      1.457674725050     0.008629703637    -2.666664090009
H     -0.561346472038     2.620031523324    -2.600748045064
H     -0.135323375352     2.539009619935    -5.014790745337
H      1.356198923480     0.814351388593    -5.969247755956
H      2.383061538976    -0.833020042937    -4.401718983772
O      2.048082267453    -0.904868033334    -1.947396138603
H      1.563379244984    -1.311352845248    -1.018684575567

