# STO-3G

title

0 1
C      1.094387020813     2.807017639722    -1.398100108373
C      2.249782060917     3.500160015575    -1.818726838380
C      2.133478290221     4.587984112487    -2.711555029120
C      0.869232912003     4.989745326262    -3.182508114645
C     -0.283232472447     4.299324073309    -2.757063969870
C     -0.174794538133     3.209501259865    -1.868992808064
H     -1.375913099954    -2.205757989947     1.449411600241
H      3.237415910955     3.203110407150    -1.470592762813
H      3.028571985745     5.118045420067    -3.031785525980
H      0.781170397674     5.832159679953    -3.864817649890
H     -1.266011471198     4.610012961750    -3.106929791028
H     -1.073685394603     2.693678338881    -1.536478274900
C      2.305910279128     2.258497211886     1.470179509650
H      2.473581200358     1.488481290690     2.217792438030
H      3.163381914529     2.543290946461     0.866724041516
C      1.139842178611     3.018785247336     1.429461518252
H      1.084132443737     3.851155784346     0.746942176892
C      0.072699267910     3.014868014446     2.448289729741
O     -0.793883952071     3.928523394488     2.392721019654
O      0.229555052103     2.235200985087     3.608351352260
C     -0.804833207937     2.369835874660     4.592666124669
H     -0.583592302426     1.701626032017     5.451935189730
H     -0.858086099981     3.415892586810     4.970149096083
H     -1.792367572751     2.079275227410     4.166110706693
Pd     1.188246645745     1.228864183165    -0.177430864105
C      1.042613765099    -0.629727485617     2.511657128080
O      1.171167423204    -0.513415471663     1.179425967207
O      1.936827725808    -0.327574274833     3.328456049527
C     -0.355369855798    -1.138087258795     3.000310892484
H     -0.720240588292    -0.363013829206     3.682210786994
C     -0.255283347727    -2.439355506529     3.766254680228
H     -1.259139570247    -2.725927912275     4.142502773922
H      0.116756356614    -3.237876145231     3.092478310473
H      0.436934191625    -2.327082232302     4.626544683031
N     -1.329228748994    -1.312840335533     1.927106279766
C     -1.911462313527    -0.243353056004     1.317695786636
O     -1.669348524631     0.954748494880     1.595165425082
C     -2.916652030524    -0.562236998027     0.282392689536
H     -3.706908343825    -1.164999904011     0.760509915929
H     -3.332690606213     0.381134316933    -0.110772680298
H     -2.425998046657    -1.138646717508    -0.519919025044
N      0.920730483766    -0.093270597242    -1.878239406589
C      1.223944331663     0.313682052981    -3.156503666314
C      0.915259747504    -0.483447849499    -4.239569394764
C      0.307482819696    -1.703169694304    -4.063172344670
C      0.040020221420    -2.110409453060    -2.786648625731
C      0.380653633821    -1.276909499920    -1.698616580261
H      1.722702453454     1.254720618111    -3.336699567268
H      1.155046943327    -0.141829579242    -5.233505571240
H      0.060965187432    -2.333096903013    -4.913908912296
H     -0.409065354628    -3.060843099577    -2.575738098077
O      0.107600593945    -1.795610725499    -0.529150703699
H      0.535502908020    -1.242659149359     0.340525630328

