# STO-3G

title

0 1
C     -0.119412988812     3.067019667152    -0.488706310326
C      0.840208449850     3.809679136078    -1.212682156631
C      0.475713577638     5.019831688622    -1.838811453337
C     -0.847079557254     5.495219075482    -1.748743589225
C     -1.801526209253     4.758913219769    -1.021506862795
C     -1.442904454079     3.550551357694    -0.386476783310
H     -1.154324537671    -1.632288219711    -0.028204767974
H      1.866399260985     3.453278012464    -1.293932180897
H      1.224370083559     5.585880330313    -2.390196869878
H     -1.126831677523     6.428918582264    -2.231292822574
H     -2.823648121850     5.123271641762    -0.938205703638
H     -2.194999452203     3.004640593100     0.179816786239
C     -0.234824980562     2.037355849710     2.362438686701
H     -0.438927963367     1.141263951944     2.936144670555
H     -1.099138673719     2.645058345728     2.131110932448
C      1.066660727555     2.498276710677     2.159555269185
H      1.234619884017     3.467064859851     1.714780160377
C      2.266269355213     1.851338332442     2.719289691973
O      3.397678954220     2.265125455843     2.357551293119
O      2.122749172606     0.775581008606     3.610217702598
C      3.318193895101     0.039357260550     3.902770236519
H      3.073164132382    -0.799329623320     4.590237238884
H      3.745828755276    -0.402382020868     2.973559665939
H      4.077506017812     0.688697871143     4.393822142788
Pd     0.392892278876     1.313792238784     0.331956315382
C      0.592660689850    -1.515802161441     2.001993775151
O      1.090455840965    -0.557039117061     1.196690321340
O      1.298936134481    -2.333410521769     2.624763815203
C     -0.970139476025    -1.524012765909     2.069478228152
H     -1.300601695583    -0.778570422531     2.801639885367
C     -1.530429793711    -2.870550924909     2.471479873252
H     -2.637982156629    -2.816367003570     2.512942291525
H     -1.235508133483    -3.631430377090     1.720237482367
H     -1.143638657072    -3.166154402202     3.468827308033
N     -1.553452767617    -1.162402486311     0.775175457380
C     -2.434426484122    -0.141799105250     0.611177025489
O     -2.799354478886     0.646289722200     1.518501258193
C     -3.014666437006     0.019949831223    -0.741997902017
H     -2.638293113042    -0.759353155737    -1.427585059437
H     -4.108722799198    -0.075232783366    -0.638536799454
H     -2.755917925987     1.020607153859    -1.120477044553
N      0.804197494363     0.509097887441    -1.602195084054
C      0.159456349642     0.955818543778    -2.727340019009
C      0.652305577264     0.652323222448    -3.979054945546
C      1.791776066788    -0.106731863282    -4.119174457011
C      2.411282447711    -0.561483196889    -2.987102134446
C      1.876875435289    -0.242395989033    -1.720001347279
H     -0.742865057927     1.548248360035    -2.639734741111
H      0.138966754668     1.017300112943    -4.853645501491
H      2.184659697627    -0.346382151268    -5.103787818293
H      3.292985455531    -1.170273528162    -3.026280412979
O      2.538621050161    -0.756009629480    -0.714149922196
H      2.038537522173    -0.714477771243     0.242506739156

