# STO-3G

title

0 1
C     -0.117127018127     3.246475668779    -0.351592849458
C      0.881523618819     4.099460870597    -0.867613036817
C      0.524050185357     5.343995983893    -1.428895307279
C     -0.826619101318     5.739168898512    -1.477865639725
C     -1.821370655545     4.881779894038    -0.968061202927
C     -1.473535419921     3.635122257464    -0.406557033103
H     -1.670429717421    -2.612063726424     0.496016001711
H      1.929195283913     3.802150956463    -0.846342561543
H      1.300083386195     5.997413258361    -1.823922081611
H     -1.099470067800     6.700645201905    -1.907355930137
H     -2.868101722981     5.178174418903    -1.007650455106
H     -2.246469981284     2.963530519248    -0.042322148329
C     -0.045630927606     2.194532413370     2.426209412963
H     -0.313583569936     1.334904921805     3.033152789553
H     -0.821723191803     2.934467744363     2.270826418027
C      1.297795227569     2.487672452609     2.142944590556
H      1.559091831532     3.439776394245     1.708359837150
C      2.436879755498     1.699677522172     2.645525462157
O      3.597582297612     2.014482501416     2.277634136332
O      2.206214762433     0.638376589287     3.536380286758
C      3.322251581937    -0.230391641513     3.775200893436
H      3.013047121938    -1.045040737972     4.465515609338
H      3.661630333999    -0.705583425194     2.825960760037
H      4.168516911857     0.324113437092     4.239881040262
Pd     0.330865115211     1.446012214815     0.389790805967
C      0.444708752804    -1.461311683913     1.923496656449
O      0.973636138330    -0.496842184631     1.158322092913
O      1.091635595087    -2.419552442024     2.400839219378
C     -1.105678774246    -1.322160167336     2.077226878596
H     -1.357744266983    -0.284363211330     2.305065998068
C     -1.693529968046    -2.228543421720     3.135462836321
H     -2.792956455233    -2.086450050493     3.179337691581
H     -1.477694796836    -3.286301603385     2.877810846288
H     -1.251017910615    -1.995313888907     4.125586459205
N     -1.737453650212    -1.645913504058     0.790740841101
C     -2.176713006341    -0.695998114396    -0.066906993122
O     -2.108542698460     0.545013853209     0.140340412021
C     -2.774694824560    -1.158726956507    -1.337890382374
H     -2.825621221029    -2.260732602677    -1.368823769775
H     -3.789610157125    -0.733203401612    -1.400668665753
H     -2.145678291435    -0.784624248819    -2.163419232832
N      0.752126496603     0.724748674220    -1.596209841299
C      0.099966434118     1.235803971129    -2.689062428594
C      0.529015232482     0.921978125071    -3.962536274624
C      1.614821848737     0.097330820512    -4.153156913598
C      2.239398015160    -0.418060619394    -3.049723867237
C      1.763875506041    -0.089928961724    -1.761633479140
H     -0.763858619626     1.875767810199    -2.561040070186
H      0.010566608443     1.334856041949    -4.812278851174
H      1.960153974146    -0.147556034092    -5.154089232430
H      3.078115591958    -1.081234349632    -3.126727084922
O      2.416947523972    -0.672540193391    -0.781593293018
H      1.925542255860    -0.649115986986     0.165227459211

