# STO-3G

title

0 1
C     -0.050893837327     3.430843337787    -1.219347847661
C      1.027323508527     4.323773965605    -1.031814149029
C      1.039621163122     5.569902045512    -1.693187746699
C     -0.022102860071     5.933050081968    -2.545050527049
C     -1.099590915506     5.045160898108    -2.729953777796
C     -1.118237721303     3.798690511013    -2.068382236563
H     -0.150677504543    -2.837942950091     2.374985959971
H      1.853935042596     4.059335828567    -0.372785745011
H      1.873571116324     6.252324057359    -1.537410979777
H     -0.011768605808     6.895179913248    -3.052356761300
H     -1.925314794533     5.318828955590    -3.384127529968
H     -1.957071062250     3.122511552878    -2.226564508290
C     -1.781614774429     1.959015864768     1.032902176872
H     -1.996142449437     0.958975740978     1.394779503034
H     -2.563332998666     2.445406199018     0.457142251818
C     -0.697633980267     2.714056208453     1.490328873818
H     -0.637671742261     3.760701443549     1.237831534588
C      0.315331287866     2.270440598990     2.465759084820
O      1.256117233799     3.060550354010     2.738656446017
O      0.377607041144     0.917550535410     2.831228101694
C      1.591974206822     0.485715143926     3.461075466691
H      1.528359104436    -0.604023281720     3.671177518896
H      2.465278530026     0.648183435489     2.788588329000
H      1.754903658672     1.023118886540     4.422285274238
Pd    -0.098953509766     1.602019146798    -0.416056681096
C     -1.142000284188    -1.209336262824    -0.169324548175
O     -0.202500852778    -0.402921415420     0.348753114167
O     -1.834175220570    -0.913126393596    -1.167492328166
C     -1.241584535531    -2.566829289851     0.582985682284
H     -0.441621534706    -3.207376348595     0.185144306632
C     -2.566383533638    -3.269511629617     0.368731975258
H     -2.578786182272    -4.221108272500     0.938987672771
H     -3.395745223067    -2.624968618648     0.725705504757
H     -2.714294686372    -3.488304983818    -0.708841935535
N     -1.003324534771    -2.424105740592     2.023727727014
C     -1.694532473486    -1.541450905319     2.793864035574
O     -2.597591950481    -0.781971085357     2.363675810438
C     -1.395224916253    -1.533213538657     4.243826324032
H     -1.084685611349    -0.510202393384     4.510762210187
H     -2.327467680403    -1.796466449376     4.769133232328
H     -0.601307238062    -2.258951582799     4.488652433177
N      1.561262559918     0.981739567003    -1.604056266774
C      1.846359081893     1.543602950390    -2.822459541884
C      3.060835294895     1.299866571171    -3.430761078582
C      3.994563397113     0.485244969281    -2.830886241315
C      3.678418259885    -0.087316285873    -1.628007028915
C      2.422297290682     0.174815304808    -1.040915620198
H      1.121514250556     2.181970415767    -3.312856392872
H      3.275904341465     1.754970679350    -4.383823362899
H      4.953109105622     0.292449401978    -3.305475644744
H      4.351893445511    -0.746083140862    -1.116946317621
O      2.216342394928    -0.460401290994     0.099778824708
H      1.195136574969    -0.503065825290     0.374484984248

