# STO-3G

title

0 1
C      0.686404382884     2.590736502101    -0.656452021135
C      1.212290457976     3.148897819809     0.530828871170
C      2.000984585258     4.317147557323     0.472403706970
C      2.267006710936     4.933869678174    -0.765118011214
C      1.743203051665     4.376134346187    -1.947034545337
C      0.957795274279     3.204854772458    -1.896751989231
H     -0.241410908772    -0.389284218264     1.597491110137
H      1.013539799977     2.693360186007     1.500457066062
H      2.399900130463     4.741451585637     1.391679551588
H      2.872410808889     5.836111727634    -0.808292428107
H      1.943333392150     4.845966310944    -2.907999793457
H      0.571151923541     2.781602000445    -2.822215991379
C     -2.300452259421     1.909743810097    -1.133540298949
H     -2.078402828995     2.755359617271    -1.776235837523
H     -2.741695491053     1.027085325444    -1.588219043671
C     -2.240352140327     2.004374939692     0.257474114070
H     -2.632184976437     1.192035411434     0.852065379054
C     -1.993461930774     3.253410937736     0.996833253349
O     -1.858188388397     3.196036193498     2.246592306133
O     -1.830765546455     4.459290902951     0.293371471053
C     -1.518576378176     5.612715675326     1.086318504649
H     -1.407035746986     6.495890629563     0.421153252958
H     -2.333006984946     5.824729043378     1.815589768288
H     -0.558996079776     5.469745216591     1.632372308597
Pd    -0.382122826598     0.902558310450    -0.584130298169
C     -2.557697856468    -1.270058034273     0.401781057429
O     -1.720778941696    -0.842694426337    -0.575365002105
O     -3.797146506068    -1.274921611998     0.277939248071
C     -1.860699424489    -1.756782276122     1.709912769483
H     -1.891863644565    -2.854340493441     1.704201662235
C     -2.552817439192    -1.262067259661     2.962069741517
H     -2.064887078639    -1.710418060989     3.852487700538
H     -2.465049824549    -0.159193841071     3.030146688356
H     -3.623549086936    -1.554274908716     2.954750425306
N     -0.456170483473    -1.363745230591     1.781887382102
C      0.525893408635    -2.309241934464     1.847867441864
O      0.314805687593    -3.542676109003     1.882173267915
C      1.921047451282    -1.822354351633     1.929302092039
H      2.466892283769    -2.235618263419     1.064724206077
H      1.951304956022    -0.721539888638     1.920232203369
H      2.352925978483    -2.207226342073     2.868936344243
N      1.354374711430    -0.260372465644    -1.039666729794
C      2.635755862762     0.213732042546    -0.890403910233
C      3.712303293816    -0.521430316438    -1.339837493952
C      3.526535329623    -1.737340702358    -1.952689637208
C      2.249039139541    -2.202273255788    -2.088319690234
C      1.165232126507    -1.435786258708    -1.607746865516
H      2.824777532917     1.154347240098    -0.394275787094
H      4.709779923251    -0.133484102305    -1.209829260338
H      4.372836509864    -2.318218042028    -2.310267156084
H      2.036514249909    -3.151390367811    -2.541070888615
O      0.006523018142    -2.005760957330    -1.783171940283
H     -0.835475425356    -1.576549116988    -1.272100857423

