# STO-3G

title

0 1
C      0.529730615411     2.902601300837    -0.099234719798
C      1.790965423905     2.833579148158     0.535199060671
C      2.594313393695     3.987170342331     0.648994657286
C      2.151634226284     5.219038171811     0.129073160244
C      0.899141045226     5.289976952248    -0.509628781863
C      0.091375927605     4.138171442974    -0.625277158678
H     -1.652827403235    -2.689628949428     1.694242686185
H      2.155958406818     1.892807042489     0.942671462701
H      3.564214960891     3.916546646319     1.137898617040
H      2.774405969901     6.106445466370     0.215914364085
H      0.547753861056     6.235868486433    -0.917762042083
H     -0.872761371508     4.219215398059    -1.123759305613
C     -2.401589847913     2.110114213036     0.759256168300
H     -2.443512116000     3.179504809205     0.581477672702
H     -3.111366105961     1.476803509652     0.237215584374
C     -1.617910935751     1.567394861706     1.775777646355
H     -1.712702042628     0.514632378540     1.992008611143
C     -0.844738520506     2.358526741392     2.748195806249
O     -0.215136297786     1.755920691073     3.656085029404
O     -0.848433634824     3.761228611080     2.662414888595
C      0.055655604656     4.444661794875     3.540735837390
H     -0.021555265096     5.539357209966     3.367126312273
H     -0.193975706926     4.239804827911     4.606377812265
H      1.107360369600     4.138922429104     3.338679287454
Pd    -0.601888024863     1.257253313719    -0.252380682267
C     -1.538600689535    -1.539573549183    -1.055817206670
O     -1.895584301130    -0.457003048475    -0.388437136410
O     -1.766906386947    -1.788599533049    -2.265991113561
C     -0.686622638033    -2.565938651886    -0.198611256739
H      0.363371283006    -2.414750621912    -0.477320989189
C     -1.044177854433    -4.010002653310    -0.476818218139
H     -0.405496519528    -4.677720289999     0.137708612954
H     -2.107215798416    -4.184579221654    -0.214789901956
H     -0.886729537547    -4.243924423304    -1.550159217902
N     -0.812407857671    -2.342433208746     1.247518444127
C      0.005092711112    -1.556703306336     1.962075537910
O      0.945551685469    -0.851641414130     1.495692310462
C     -0.212618251306    -1.548268744199     3.421756182006
H      0.504667517519    -0.849617392171     3.890524987192
H     -1.245595584339    -1.222158399992     3.623405367027
H     -0.052059367537    -2.573579637784     3.797105501463
N      0.564209616748     0.656228456616    -1.866898221555
C      0.108325942911     1.061584209554    -3.092861926714
C      0.835605511534     0.776036533027    -4.229296343960
C      2.013776999114     0.068500442518    -4.143528033804
C      2.435374558039    -0.342678674540    -2.906584009329
C      1.660940854731    -0.033833114078    -1.768329516248
H     -0.817199072362     1.620558611452    -3.166003333675
H      0.470501370315     1.101004216584    -5.189495740059
H      2.589965862291    -0.164518155547    -5.034946656102
H      3.336246320588    -0.907149842640    -2.772159082133
O      2.151757782513    -0.516732453964    -0.646718843107
H      1.580192737830    -0.565809973137     0.217450436492

