# STO-3G

title

0 1
C      0.289429763638     2.572066631644    -1.157835233186
C      1.284990680624     3.548708128058    -1.394699526838
C      1.168544789005     4.439278047999    -2.482876553486
C      0.059186551334     4.363140400798    -3.346931437271
C     -0.930697501209     3.387517911265    -3.118749270948
C     -0.815227397936     2.493300921426    -2.033362301396
H     -0.816086766752    -1.900806084028     4.207177647169
H      2.148124268842     3.632422800346    -0.734492632436
H      1.941677701018     5.186667775628    -2.651931134980
H     -0.031412978172     5.048803123737    -4.186432211940
H     -1.788791091356     3.314448087266    -3.784594553493
H     -1.581527567540     1.734006975196    -1.886429353272
C     -1.170818342323     2.129479805793     1.543378863867
H     -1.878383650164     2.601540211251     0.869390998801
H     -1.455889427989     1.168148814781     1.950534322046
C     -0.033665542594     2.782148867311     2.018990276293
H      0.567921232230     2.299389700286     2.776348713098
C      0.292014127066     4.188960242307     1.731903530854
O      1.413976493297     4.634288010187     2.087334468190
O     -0.605662738948     4.971965259697     0.985476798838
C     -0.159840233240     6.292828869148     0.649146256076
H     -0.947504283133     6.805735738580     0.056350588535
H      0.033660010328     6.892141782184     1.567471914529
H      0.764530332596     6.252171380018     0.029850644494
Pd     0.537383247598     1.299099824928     0.367273858289
C      1.384327543713    -1.159326381638     1.997492295683
O      0.785664703357     0.010606593685     2.038208018725
O      2.513512620264    -1.427621400116     1.508106125845
C      0.567594184998    -2.314610449512     2.688452869768
H      1.161134926009    -2.625663182043     3.557670635078
C      0.389758833471    -3.527851869659     1.797116513823
H     -0.135368612747    -4.326714150916     2.360191313731
H     -0.213683202179    -3.266468642388     0.906765153450
H      1.378461421179    -3.908951864168     1.467071094622
N     -0.752563881973    -1.903317893593     3.197992370189
C     -1.771311590873    -1.381528034081     2.493073240708
O     -1.785101398990    -1.135595403340     1.255674837679
C     -3.023522462648    -1.096340264802     3.232825288767
H     -3.232698034614    -0.017741149204     3.155227135362
H     -3.827921737571    -1.675799715603     2.749532771409
H     -2.943469527750    -1.391100878958     4.293891468106
N      1.266523805639    -0.078858208285    -1.003715902273
C      2.520929900427     0.126284827685    -1.512288283650
C      3.007318043162    -0.699417076811    -2.504627401654
C      2.245533563798    -1.744776688430    -2.975950769130
C      1.004208170831    -1.941499565076    -2.430522302234
C      0.546338637310    -1.079345803387    -1.410781828815
H      3.122193368548     0.951254190738    -1.148712386796
H      3.992436512159    -0.525596548214    -2.904266970625
H      2.622714592716    -2.401879045744    -3.754846731744
H      0.368951546767    -2.745939240094    -2.741871198120
O     -0.645470082249    -1.404656375517    -0.949525814213
H     -1.000714537898    -1.117038246018    -0.030032428433

