# STO-3G

title

0 1
C      2.051224125904     2.513709931772     0.133178787041
C      2.796846024643     2.050390827208     1.241017623876
C      4.108226504205     2.520862943139     1.464158459515
C      4.689653623905     3.458048654935     0.589012610695
C      3.952962137248     3.919532604864    -0.518876879678
C      2.642493746156     3.449039624474    -0.746711339091
H     -2.296561016770    -1.369014488513     1.852127110127
H      2.373828679319     1.309290607019     1.915513252244
H      4.672804691459     2.146939246417     2.316395252794
H      5.701112161370     3.817672294950     0.763864313876
H      4.394755727066     4.638987609522    -1.205914556093
H      2.095444873643     3.814259685191    -1.614310684060
C     -0.613783178698     3.770189037401     0.594282489543
H     -1.548199216348     3.892564590939     0.054569711237
H      0.202748112881     4.441968480873     0.355289020711
C     -0.530274503317     2.931509172496     1.706641357294
H      0.379888095581     2.906711482105     2.289382271197
C     -1.696531745060     2.303261466298     2.352218147341
O     -1.515555400447     1.679567828416     3.430252384054
O     -2.987718816261     2.568466907571     1.870822262419
C     -4.042488390873     1.789158642495     2.450868521810
H     -5.003409087014     2.050539052749     1.957699973277
H     -3.865693978531     0.701420149978     2.287352312328
H     -4.136942128049     1.994145622879     3.540687898501
Pd     0.175005069723     1.858786710102    -0.199306408516
C     -2.483970596012     0.200695858780    -0.447442123956
O     -1.839030773653     1.332823858966    -0.645255419648
O     -3.736128484442     0.050289937477    -0.441501661621
C     -1.564981562873    -1.039304094038    -0.110642335487
H     -0.571517092777    -0.874605586969    -0.522210717592
C     -2.109598563946    -2.348417677530    -0.639280026458
H     -1.418107032316    -3.174321675739    -0.373282973982
H     -3.101495834958    -2.548515124893    -0.183199014104
H     -2.215600123320    -2.298403190374    -1.742221572774
N     -1.439701447633    -1.165564761366     1.350164205329
C     -0.304746586561    -0.966243799087     2.035735528476
O      0.785283725084    -0.544549995556     1.545807621544
C     -0.341682761253    -1.307984543127     3.469965294804
H      0.633770186263    -1.066064024207     3.926111292988
H     -1.142757948116    -0.720051175638     3.947905456925
H     -0.555995130434    -2.386775995254     3.558911899248
N      0.874040840177     0.739248962770    -1.820121306982
C      0.472305617931     1.208168582500    -3.042173661655
C      0.959189884063     0.629319066902    -4.195500294029
C      1.844969426349    -0.424400937185    -4.128474479729
C      2.212074877082    -0.886291292891    -2.891733641227
C      1.685905887897    -0.272542790235    -1.736115572339
H     -0.218548260760     2.041492072269    -3.100293641123
H      0.643091875858     1.007063760073    -5.154375314913
H      2.234613634934    -0.883692396177    -5.033178261262
H      2.885886322191    -1.710832653805    -2.767942644931
O      2.070623733816    -0.829414158472    -0.607256616242
H      1.571211399598    -0.587860949702     0.256683109307

