# STO-3G

title

0 1
C      1.520758129454     2.327769803181    -0.196511223344
C      2.442669024202     1.789716587848     0.729791474918
C      3.718347274478     2.371309416034     0.882463030656
C      4.087233685447     3.492457746317     0.113784719124
C      3.172105297571     4.028087924666    -0.812248583274
C      1.894433988835     3.448643636104    -0.969663061130
H     -3.239887797051    -1.014306702543     1.774073536847
H      2.175737815914     0.926168220213     1.335891460927
H      4.419071364614     1.942836072125     1.596684081450
H      5.072520789092     3.937761243028     0.231417811605
H      3.447517540956     4.893106094422    -1.412804069620
H      1.205290611937     3.880099496150    -1.693211076390
C     -1.461089869578     3.288941884036     0.136174780725
H     -0.912701409735     4.176074141732    -0.162964532991
H     -2.332030183364     3.006012292610    -0.445823093342
C     -1.204137923854     2.642362347421     1.344410105424
H     -1.867221273073     1.848800466901     1.654245217718
C     -0.252069014141     3.123456267586     2.360211469340
O     -0.133267609923     2.477325458018     3.433644176822
O      0.483100195009     4.297531232447     2.123239984211
C      1.491587843046     4.611962730113     3.092798001135
H      2.014975427495     5.543676908454     2.788575731031
H      1.039998894587     4.775221489887     4.097428408599
H      2.248551416025     3.797263345138     3.152249966332
Pd    -0.279247479729     1.474497759538    -0.394658711686
C     -2.448469608398    -0.578845086906    -1.050656879840
O     -2.256788031755     0.645841045965    -0.593649724468
O     -2.736346563299    -0.904673087541    -2.229244452137
C     -2.227630147732    -1.711301270789     0.037524303189
H     -1.217797670370    -2.109148674885    -0.117398317135
C     -3.209206789601    -2.856078666061    -0.091507848370
H     -2.996360141969    -3.619831016376     0.684862489366
H     -4.241091404731    -2.475583985906     0.048785944981
H     -3.122940222200    -3.323879720727    -1.094154233585
N     -2.311952211582    -1.201892218451     1.413003419919
C     -1.257605402839    -0.807255656565     2.139730186139
O     -0.061262910368    -0.744957376055     1.732466184797
C     -1.534804097037    -0.442704028135     3.542348203038
H     -0.593960164834    -0.122762513958     4.026424163227
H     -2.264967110164     0.382330998078     3.555752893227
H     -1.946875774006    -1.330623214987     4.051985774295
N      0.542148482875     0.133354369003    -1.765418889261
C      0.411395376718     0.511431505743    -3.075148262213
C      0.966012057969    -0.259068676505    -4.075501771263
C      1.639441986834    -1.420437677255    -3.768998857387
C      1.736879723027    -1.785772223306    -2.452318854918
C      1.152979988461    -0.971970984727    -1.458713870110
H     -0.116209015955     1.425211575711    -3.322307682172
H      0.859760092311     0.047200283070    -5.103071194814
H      2.074983437151    -2.035426462285    -4.551973506375
H      2.236425375768    -2.683364046449    -2.147077299639
O      1.279948951258    -1.450367184685    -0.239037292361
H      0.718413527638    -1.062124809084     0.539092348788

