# STO-3G

title

0 1
C      0.474524945423     3.114259827268    -0.751741574976
C      1.801249954761     3.510666554568    -0.466735784292
C      2.195544442710     4.853215739092    -0.642566772234
C      1.272252103986     5.810322671698    -1.106752923679
C     -0.049403839309     5.417621400509    -1.391928226391
C     -0.450233882836     4.076062206081    -1.214388808530
H     -2.671603605487    -3.385049544411     2.192052408037
H      2.526431220982     2.784056454827    -0.102379373112
H      3.219057818580     5.145165778763    -0.413984072302
H      1.577424087925     6.845519918361    -1.241622441497
H     -0.771436790852     6.150031274235    -1.748150273604
H     -1.476969119353     3.794870335666    -1.440646337486
C     -1.732162849360     1.608581348552     0.853810013724
H     -2.161219126182     2.583237202404     0.642887597861
H     -2.342501593094     0.742658544073     0.610075052617
C     -0.584081456537     1.474401484355     1.640515561690
H     -0.262925653032     0.492230182588     1.964311829968
C      0.096154858085     2.601155790624     2.304654361133
O      1.231236231318     2.410918978520     2.813815354864
O     -0.466461172729     3.888522030891     2.230123212320
C      0.331918145724     4.953879660306     2.762848101815
H     -0.211001104518     5.915508359797     2.642182028123
H      0.530715469917     4.796195027558     3.847080877963
H      1.298468752007     5.033162717247     2.215798545407
Pd    -0.054456481309     1.196743563412    -0.586848807091
C     -1.487475178227    -1.634496178328     0.123222827697
O     -0.485408495611    -0.921014016745    -0.379704431548
O     -2.699019379336    -1.318845591203     0.054577888363
C     -1.032885142724    -2.899135330682     0.915003077700
H      0.035882038059    -2.806810919298     1.128547621006
C     -1.285614505663    -4.183666379936     0.157261656688
H     -0.950152474057    -5.045385445249     0.770753234064
H     -2.371995608775    -4.288058028374    -0.043661235466
H     -0.727846193775    -4.178340565557    -0.801612666328
N     -1.756251660506    -2.955467011066     2.184578048854
C     -1.400401745339    -2.098399177861     3.178171960733
O     -0.465132747921    -1.266096349415     3.081829544863
C     -2.170584266025    -2.162891410866     4.438224043406
H     -1.454214005821    -2.359247284032     5.253135561700
H     -2.654291908543    -1.182586355937     4.578437517518
H     -2.926791290644    -2.966179337231     4.394156451077
N      1.302407913935     0.683069495945    -2.147439165667
C      1.590032707958     1.555783574018    -3.166462248271
C      2.640051327916     1.301136558823    -4.024188840655
C      3.408427254125     0.169115694267    -3.875567890238
C      3.089504035323    -0.703139126278    -2.870288528282
C      2.001440959870    -0.418689370428    -2.017521505980
H      0.993164751086     2.448880008873    -3.305882860803
H      2.860237100996     2.000927193559    -4.813868884376
H      4.239679903339    -0.032651275798    -4.546085484211
H      3.637250580739    -1.610668028529    -2.710327633106
O      1.769777683390    -1.343997622554    -1.114251682694
H      0.806098414998    -1.272103478272    -0.652634740904

