# STO-3G

title

0 1
C      1.147123370015     2.852686622024    -0.922351157679
C      2.374810512764     3.093351847433    -1.573807273562
C      2.487296099288     4.148915009913    -2.503681940236
C      1.376165978902     4.964849357819    -2.791485183567
C      0.148029044200     4.719585540180    -2.146446618698
C      0.030451636097     3.668081020359    -1.213599551184
H     -2.651895760525    -0.933840740219     2.654293268965
H      3.237200568226     2.458563656802    -1.376662088237
H      3.439025545083     4.326191581576    -3.001486125172
H      1.465875402104     5.778451214182    -3.507906308903
H     -0.716814690019     5.343259712783    -2.365901315997
H     -0.927947425334     3.480530333347    -0.732391045750
C      2.116753747749     2.309441138828     1.877609549269
H      2.484718142332     1.473283046193     2.465922016198
H      2.849905459769     2.864623178665     1.303411287599
C      0.812919903925     2.806571482624     2.050826396359
H      0.528896820163     3.721626152165     1.552286147028
C     -0.107752002655     2.375798116423     3.117771705275
O     -1.254394113271     2.895511465110     3.158763996653
O      0.365135417302     1.572399754458     4.169653955944
C     -0.637478890633     1.059164006037     5.056526105486
H     -0.152695232548     0.426407369240     5.830302523502
H     -1.176692471195     1.886844299338     5.570278073696
H     -1.365121739645     0.425802260625     4.499179254211
Pd     0.887251055339     1.338373517302     0.352417219543
C      0.286570256267    -1.395590131642     1.517016418135
O      0.453090987118    -0.156911245187     1.833264863958
O      1.229697635853    -2.193447611524     1.162627732027
C     -1.172024325239    -1.933983920243     1.535500877647
H     -1.249474463956    -2.654857541090     2.359637394400
C     -1.530615599475    -2.653497655977     0.249504437574
H     -2.585362596363    -2.994585350634     0.296180018516
H     -1.412638007484    -1.965706565857    -0.613200529201
H     -0.871772269039    -3.534580073571     0.104813915280
N     -2.158653579491    -0.873765300795     1.773533012434
C     -2.345879100231     0.235802242614     1.012311892832
O     -1.689264849571     0.544264132386    -0.015585440515
C     -3.454811139907     1.113357405117     1.445297836635
H     -3.509197616792     1.982985063833     0.768282105315
H     -4.385550895243     0.524680162752     1.400224278212
H     -3.256070983002     1.446987401234     2.478207228661
N      1.103011522056     0.027052453245    -1.324852724477
C      0.335993836924     0.291960147867    -2.429800029736
C      0.685274689635    -0.241047614090    -3.654768775585
C      1.796403830885    -1.045083337264    -3.777229340657
C      2.526713152433    -1.320776651107    -2.651252122235
C      2.125239195197    -0.775740599497    -1.411599475762
H     -0.529530459491     0.938666208454    -2.348960001542
H      0.085069361001    -0.012142160629    -4.519643061812
H      2.078890882919    -1.461101575991    -4.740544504121
H      3.385908219732    -1.960435677269    -2.671540632213
O      2.859739733178    -1.150680706954    -0.374905708446
H      2.288841558409    -1.505468074657     0.445246437735

