# STO-3G

title

0 1
C      1.525586611840     3.061769569995    -0.657011151641
C      2.918641172409     2.937486310206    -0.458955573237
C      3.785323358619     3.990640998736    -0.820007356758
C      3.270590079785     5.172139351730    -1.387747375851
C      1.882628878089     5.297378405605    -1.590918183297
C      1.011442811728     4.249341050243    -1.225994022571
H     -0.690543152420    -3.228533298812     1.189395263357
H      3.335027149516     2.026279318123    -0.031987823909
H      4.856545676291     3.884413148592    -0.657960658595
H      3.940334642902     5.983130277564    -1.664947510764
H      1.475267483745     6.207363666831    -2.027725060735
H     -0.058543520181     4.366279605594    -1.392861602199
C      0.403272120352     2.005435610507     1.955816418941
H      0.170947697655     1.065117824285     2.452625773919
H      1.433223683993     2.343027347750     2.020130633547
C     -0.584722181217     2.849789584611     1.442016840524
H     -0.302838514944     3.821032474844     1.067028876899
C     -2.033189147770     2.680659272303     1.660488811573
O     -2.444435387179     1.905378855544     2.563102918705
O     -2.905903686763     3.558196688381     0.995254052658
C     -4.304298211924     3.328812563111     1.220581818490
H     -4.898943788590     4.063158471176     0.636624294122
H     -4.594831035582     2.304971766022     0.889318320343
H     -4.558333851750     3.451972039199     2.297953963518
Pd     0.297165873404     1.540751283124    -0.238855004593
C     -2.090032830217    -0.506376080041     0.627055482986
O     -0.849589990151    -0.200427637478     0.239569759944
O     -3.119415894539     0.112692105250     0.286489057712
C     -2.164400717471    -1.770672808549     1.546444293045
H     -2.801316202323    -2.493092055757     1.019487131218
C     -2.824199621526    -1.470561276659     2.877271785152
H     -2.829540418659    -2.383360549873     3.507407214718
H     -2.271292766946    -0.667607861535     3.406791634314
H     -3.868415668285    -1.131534943664     2.716932249018
N     -0.867125622130    -2.418245693427     1.770554448820
C      0.179908985025    -1.919480827619     2.485318130849
O      0.198965437624    -0.831003934380     3.106234595259
C      1.385428609477    -2.776572642858     2.509722393451
H      1.735801427382    -2.900759440966     1.470693681540
H      2.158000022212    -2.283832335018     3.124054231598
H      1.104140261353    -3.749771289431     2.947235264244
N      1.122227348413     0.443101176588    -1.874123762652
C      1.564558961024     1.066303281599    -3.013352434428
C      2.318514014156     0.371789623705    -3.936892472656
C      2.627940967962    -0.954149519323    -3.734660668000
C      2.157123505524    -1.564209413139    -2.603409032743
C      1.379069855547    -0.826664834687    -1.685464142765
H      1.323968732210     2.106586773203    -3.194936548170
H      2.665824303710     0.876228852214    -4.823821735203
H      3.221257339796    -1.505206037951    -4.459609030754
H      2.343125569791    -2.599072689490    -2.395207284805
O      0.954667743733    -1.522238700224    -0.651951381740
H      0.153123285752    -1.038284255623    -0.108735232773

