# STO-3G

title

0 1
C      0.389202160413     3.382782442937    -1.487616521542
C      1.183638421234     4.480822209362    -1.082109360704
C      1.581369457814     5.462058689003    -2.015842554998
C      1.188049354705     5.361303385411    -3.363858613836
C      0.397468839841     4.269796490013    -3.774508353523
C      0.004983352434     3.284738774817    -2.844818936327
H      0.440701425464    -1.696278018763     2.568172838078
H      1.500285039753     4.583206459775    -0.044612729283
H      2.191155957340     6.302189287492    -1.687356445110
H      1.490416080286     6.120004875807    -4.082393935839
H      0.088313421510     4.180795154770    -4.814588141807
H     -0.594810268319     2.441066051663    -3.183444123696
C     -2.140657144184     2.862696064835     0.140422539450
H     -2.747884144495     1.990185265445     0.376884531641
H     -2.320942355988     3.357863035814    -0.809195118164
C     -1.259224181104     3.434160289853     1.061775630182
H     -0.747779941283     4.350016312777     0.805167999779
C     -1.149318854834     3.049022408206     2.480951118228
O     -0.241149549258     3.583164776283     3.171153999140
O     -2.108349159132     2.202390122647     3.062656134947
C     -1.883260396414     1.848137033712     4.433430621598
H     -2.697540007010     1.173740645272     4.775144492242
H     -0.914244884556     1.310854636717     4.546467678817
H     -1.885667397246     2.753082696127     5.082227498173
Pd    -0.139145204676     1.929435286842    -0.208183165893
C     -1.714804055692    -0.344067024781     1.194664884746
O     -0.606731693585     0.367104923583     1.168971617697
O     -2.867207611063    -0.010990245177     0.799055741533
C     -1.530751887969    -1.781253251922     1.790157273840
H     -2.047119277013    -2.471691654959     1.116675823690
C     -2.118765212512    -1.913413834305     3.177641458037
H     -2.001144620768    -2.958443432958     3.531144718249
H     -1.580656520416    -1.236606420967     3.870447874684
H     -3.196578910593    -1.649863484084     3.162183959113
N     -0.118974648565    -2.154636895190     1.857609762294
C      0.504021021952    -2.690800419567     0.796549788652
O     -0.060567370773    -2.972634463199    -0.307200076351
C      1.943850902603    -2.969849432782     0.961163528556
H      2.325688901461    -3.443221278662     0.040564722598
H      2.452493975617    -2.007699041963     1.142952390645
H      2.064612804648    -3.645997513483     1.825361955542
N      1.375519475563     0.761429402493    -1.075147085988
C      2.682936777042     1.166515563276    -1.115800311520
C      3.649739845028     0.325234030828    -1.630800538933
C      3.307245717747    -0.914179934564    -2.125558043681
C      1.988583785846    -1.286144703150    -2.090150016293
C      1.033101086466    -0.390949975174    -1.549409268086
H      2.962419027848     2.136626965573    -0.722462252651
H      4.677309410018     0.649638951126    -1.651892341374
H      4.062351475769    -1.575736169633    -2.541944124689
H      1.655745090800    -2.225612151019    -2.485719583101
O     -0.249004251177    -0.753774947978    -1.582266239696
H     -0.397452902081    -1.705716568549    -1.273777029966

