# STO-3G

title

0 1
C      0.785363457564     2.621889085715    -0.940284258906
C      1.730195542418     3.660585174090    -1.098261868185
C      1.519673572264     4.680206191242    -2.051879200607
C      0.365170368123     4.674255858087    -2.856998679094
C     -0.577023884617     3.637449317019    -2.707475885578
C     -0.367046367188     2.615526387294    -1.759341899747
H     -0.895614011745    -1.659121564623     4.063043617100
H      2.629808461504     3.691345327267    -0.486057951602
H      2.255816621917     5.474872645982    -2.159965427740
H      0.203730015946     5.460505087137    -3.591100725459
H     -1.471045005835     3.616849282060    -3.328302311513
H     -1.103470382773     1.818713701795    -1.666649774947
C      1.412747321025     2.480181152996     2.172812209312
H      1.898585672300     3.395843619196     1.853728537157
H      2.003748631925     1.753431826277     2.720604726482
C      0.032445725349     2.313795658014     2.091970292870
H     -0.407327929611     1.434875267341     2.534228629589
C     -0.914992021703     3.349580577582     1.647965111186
O     -2.145877558380     3.086594125640     1.648859846751
O     -0.432232477036     4.610127676167     1.256010568564
C     -1.395597277956     5.492367776217     0.664936802404
H     -0.896447801318     6.443376583135     0.380733392092
H     -1.826511724586     5.042079618414    -0.258210983695
H     -2.213940207108     5.726385074125     1.382936447637
Pd     1.057030777416     1.155092444333     0.397339736387
C      1.368532795486    -1.636174272422     1.743174064769
O      1.244756362960    -0.337184441221     1.906844588913
O      2.273363394211    -2.250029411104     1.121305297776
C      0.262357701419    -2.473274014657     2.498513522891
H      0.772326216137    -2.942140447335     3.349971172900
C     -0.334721452403    -3.578145487397     1.650480652566
H     -1.058958254708    -4.160073569629     2.256872024181
H     -0.865864870546    -3.148746727163     0.779109413432
H      0.464032215742    -4.258822180288     1.289847812877
N     -0.832704749004    -1.658199574844     3.052800190024
C     -1.635106053796    -0.816024570305     2.380945967038
O     -1.603801259259    -0.568894197703     1.145502020912
C     -2.669975846811    -0.137586003520     3.189924514804
H     -3.249154951487     0.543865471985     2.539274108405
H     -3.326014369798    -0.915539400316     3.614351789853
H     -2.175044764001     0.433730183842     3.993803863457
N      1.389820839482    -0.122776143931    -1.200687414730
C      2.588799246676     0.012911575216    -1.847397109600
C      2.878323823398    -0.774233550154    -2.942287292675
C      1.972113437644    -1.711728515655    -3.384332939308
C      0.784870604654    -1.833994551346    -2.712641514949
C      0.527865311233    -1.011956526619    -1.594309001769
H      3.305208026777     0.750446151352    -1.505198385405
H      3.823069180938    -0.657845949723    -3.446519402254
H      2.194204884201    -2.340368278508    -4.242376404034
H      0.041407415094    -2.549968027867    -2.999534342762
O     -0.637777224452    -1.243956211844    -1.032977697469
H     -0.914923557604    -0.859128110222    -0.116391561105

