# STO-3G

title

0 1
C      1.389017217117     2.722154990489    -0.406754708282
C      2.760399142144     2.449144192927    -0.200279055992
C      3.705621543206     3.494379301596    -0.222393704696
C      3.294300116743     4.820298968954    -0.463244317503
C      1.930795561576     5.094242672848    -0.678999429707
C      0.979342901127     4.051387133187    -0.650011102820
H     -4.094803041168    -0.938999424903     0.560845958812
H      3.096444528060     1.428749838676    -0.024860684571
H      4.757503856508     3.269947071981    -0.056880571653
H      4.024045385835     5.626464499942    -0.479585888075
H      1.601829128174     6.115886926469    -0.859599209458
H     -0.070066333065     4.291766042405    -0.809055238477
C     -1.318848557235     2.113754431027     1.125835207179
H     -1.343412318412     3.191360191877     1.000950187496
H     -2.196328207067     1.556242435984     0.816485396238
C     -0.328001979060     1.483850119223     1.876500098054
H     -0.429487130088     0.436594520961     2.121311240847
C      0.728244126527     2.193766107039     2.620077829362
O      0.709319040720     3.452256608469     2.685319238488
O      1.789495997378     1.447839045804     3.158462143149
C      2.843651912172     2.209230433071     3.763663356431
H      3.623463710330     1.517222315055     4.148114622644
H      3.316744961256     2.889593893032     3.018724216720
H      2.457734949313     2.808538729717     4.619343340678
Pd     0.078580433571     1.212862161427    -0.391509382447
C     -1.226598346918    -1.515444316551     0.235291314718
O     -1.428590720603    -0.358077904236    -0.293115697293
O     -0.087250728571    -2.123571158152     0.274901689577
C     -2.424503445421    -2.210869478664     0.921647436066
H     -2.034066526134    -2.674773284636     1.832656094608
C     -3.049017758207    -3.280790373720     0.052453945413
H     -3.879562659522    -3.766083367581     0.605799473762
H     -3.455627495995    -2.819374624593    -0.870506060195
H     -2.293056989956    -4.047730576987    -0.215415515281
N     -3.458252647887    -1.247061361539     1.285058894444
C     -3.305565221362    -0.503327437822     2.416313369331
O     -2.308846463041    -0.577401840846     3.174085350613
C     -4.395602510300     0.435787576076     2.760039591231
H     -4.774979705999     0.145858927710     3.754151290742
H     -3.963006322637     1.448480947315     2.800100570097
H     -5.208359043932     0.384072332552     2.014630298805
N      1.003809343817     0.541868661470    -2.128834257667
C      1.048610720295     1.379269088026    -3.211666170751
C      1.825796114504     1.058773714098    -4.304098446393
C      2.566073689643    -0.101126909544    -4.319269344379
C      2.502340236281    -0.927422498125    -3.229558106093
C      1.689708715299    -0.577973917600    -2.126668276388
H      0.473798555915     2.298043628788    -3.207788467282
H      1.857992047614     1.728942053115    -5.147301271210
H      3.185309978473    -0.355429518576    -5.175393360292
H      3.054717190233    -1.844555721887    -3.180469711176
O      1.717632930133    -1.437663296769    -1.150914097725
H      0.873119253630    -1.662499585949    -0.429998861655

