# STO-3G

title

0 1
C      0.350167825490     2.544369808781    -0.145204553387
C      1.394274144493     3.456012573635    -0.426116425804
C      1.159281278467     4.845371499982    -0.351020716782
C     -0.108873498438     5.329710988331     0.020306104348
C     -1.147459388083     4.417881926465     0.290780592462
C     -0.921651629067     3.028373595591     0.203804796062
H     -4.077800544197     1.397627308585     0.715889149708
H      2.387851226663     3.109281587774    -0.709905702018
H      1.967146648928     5.538737166825    -0.576252814074
H     -0.287232744613     6.400423642922     0.088877433838
H     -2.137401724462     4.786955866371     0.553965848676
H     -1.734395166795     2.326850925452     0.338169438668
C      1.016534087697     0.019252469467     1.477897340590
H      0.417712625686     0.659642566693     2.115067425324
H      0.627502546080    -0.989618158820     1.362112976416
C      2.320553854717     0.347205608506     1.064716362622
H      2.923053385935    -0.420725898830     0.599648024404
C      3.067094742775     1.521368876848     1.544252647514
O      4.182008498422     1.777156811467     1.018254615244
O      2.473461394735     2.398026654393     2.468211553145
C      3.220882356476     3.579315894854     2.787689348972
H      2.648748436703     4.186706137208     3.521754186100
H      4.203208782975     3.316705972162     3.241482839639
H      3.383668837525     4.201814846727     1.879103476840
Pd     0.777767464647     0.653440168580    -0.628359162805
C     -1.969099630599    -0.678394192576    -0.594551354359
O     -1.375326363701     0.377116491828    -1.048211981286
O     -1.493041054939    -1.869516978914    -0.526930838489
C     -3.409593982287    -0.521252500540    -0.021026415600
H     -3.616215296335    -1.459669001493     0.504971414977
C     -4.441727409992    -0.315158805218    -1.109142508244
H     -5.453372441348    -0.263155625222    -0.656277965157
H     -4.231626771743     0.637970401654    -1.637282627162
H     -4.409541556262    -1.155813802918    -1.832396395651
N     -3.496530072847     0.597079780473     0.923541755115
C     -2.745888708680     0.603893643017     2.058369101150
O     -1.862848225496    -0.242884163953     2.328474440845
C     -3.021984633157     1.702816810916     3.008759557394
H     -2.351874479040     1.593394991650     3.879479896920
H     -2.834776954924     2.660184653757     2.496909119679
H     -4.077786322232     1.626645596765     3.320734678959
N      1.717662612033    -1.060066488999    -1.622525436219
C      2.701032236145    -0.643325101344    -2.481987831795
C      3.655306567070    -1.532516383223    -2.929838173284
C      3.623951411307    -2.851552228346    -2.534812687726
C      2.617483634348    -3.253513517145    -1.698360826888
C      1.651031144497    -2.317105384681    -1.269748999047
H      2.743219544930     0.395561922728    -2.788341460179
H      4.432639529979    -1.188796229626    -3.593098516862
H      4.374355177398    -3.556444409378    -2.883231460283
H      2.524504454971    -4.267800030612    -1.363702826358
O      0.721278946404    -2.807935929314    -0.491347031698
H     -0.256257243636    -2.310440359882    -0.496597672012

