# STO-3G

title

0 1
C      1.166720668808     2.604966071724    -0.365207240515
C      2.095124695085     2.143903713779     0.594647733425
C      3.141155673698     2.991852374872     1.012699724861
C      3.265675718695     4.290333882479     0.478840072408
C      2.336902559012     4.741693316891    -0.477406510589
C      1.284858581020     3.901453090248    -0.904274783875
H     -2.432651495235    -1.437529476189     2.498771676677
H      1.991957917800     1.144218969504     1.010954828929
H      3.854805722385     2.636185360860     1.753664134167
H      4.072093105797     4.942933991859     0.805950494125
H      2.419113135458     5.746168038795    -0.888581480020
H      0.574222930596     4.269976229018    -1.641051816496
C     -1.998891113119     2.679656768025    -0.609014793820
H     -1.755766823354     3.666328792804    -0.990653700982
H     -2.705050190502     2.080124899316    -1.173650911883
C     -1.638816885132     2.286449991602     0.683847876272
H     -2.051309389994     1.374461585343     1.088080586577
C     -1.013266663907     3.177457376150     1.679234740971
O     -0.856307925336     4.399690372374     1.415058837218
O     -0.627870588186     2.641142455314     2.919177638676
C      0.090208472337     3.531139206408     3.784774441832
H      0.352801612993     3.000458620001     4.724814538824
H      1.034205011338     3.873636065024     3.301281512518
H     -0.532394150712     4.416668337506     4.047178111364
Pd    -0.255716155508     1.318276460737    -0.902091764146
C     -2.694061979199    -0.654391434369    -0.326544106485
O     -1.938749889717    -0.159778561386    -1.320504584185
O     -3.769242574138    -0.146105229232     0.063362546568
C     -2.057681972088    -1.867598710751     0.433910206936
H     -1.137678190831    -2.178632632089    -0.068149934124
C     -2.995498831189    -3.049122194608     0.539998502967
H     -2.500955828673    -3.864595213093     1.107205495348
H     -3.917963598478    -2.745561844543     1.077654739338
H     -3.261331961395    -3.416714749930    -0.472237404933
N     -1.707734165387    -1.432894473358     1.792243325435
C     -0.520789370804    -0.829812325439     2.056026778083
O      0.345012881692    -0.543928021349     1.191231215780
C     -0.271677725020    -0.503757109252     3.473924761048
H     -0.282988466298    -1.447578059286     4.044168807665
H      0.709470234095    -0.005442702849     3.555912397688
H     -1.073437007806     0.171285858347     3.821022253224
N      1.138797512275     0.275869068455    -2.203679295939
C      2.338269101101     0.830404180412    -2.583936936776
C      3.257800369589     0.092352572101    -3.301004734449
C      2.994585534053    -1.210762578522    -3.647823262889
C      1.790161830870    -1.743840522758    -3.284053932094
C      0.866708691022    -0.959171230344    -2.558222782636
H      2.576410075224     1.857441065501    -2.349204875360
H      4.193674129979     0.545450272300    -3.584596572264
H      3.718993302977    -1.797160285339    -4.206842637480
H      1.516274044905    -2.748963153218    -3.535463741847
O     -0.256266401912    -1.578065087540    -2.301055406495
H     -1.050513377574    -0.976589247460    -1.854936667017

