# STO-3G

title

0 1
C      1.750252014969     2.947007689737    -1.063229628433
C      3.125806812493     2.877945943003    -0.751131599684
C      4.002007464275     3.899295077858    -1.172244552695
C      3.515562067832     4.993095091229    -1.915339127428
C      2.146086933732     5.061455182883    -2.233283821227
C      1.263577326347     4.044615957603    -1.808189992758
H     -3.076835817948     0.352523703722     0.222551782503
H      3.519189390068     2.034793590117    -0.185393357552
H      5.059026016714     3.835985583720    -0.920284080196
H      4.193895632086     5.779029330173    -2.239257207561
H      1.761030225531     5.902358457598    -2.806909807016
H      0.209248312812     4.118512628191    -2.069079002702
C     -0.869504107827     2.825797495709     0.710086366233
H     -1.768564647831     2.258438157624     0.915291825334
H     -0.991196614521     3.677405883428     0.048222347916
C      0.304148488208     2.683463691380     1.443773003708
H      1.102183050266     3.396121916675     1.307532351494
C      0.502351123690     1.777838024308     2.590875298249
O      1.644881554665     1.729836592701     3.116185337402
O     -0.541250137753     0.947504694176     3.040191987371
C     -0.205782090432     0.061369310323     4.119041179376
H     -1.096286238431    -0.536874130970     4.403736051282
H      0.600924378469    -0.644265116943     3.813255225176
H      0.125592559100     0.634704328692     5.014761647241
Pd     0.490856558381     1.483830889288    -0.531170231744
C     -1.050922220712    -0.938254583684     0.718268322397
O     -1.032892902895     0.027572085963    -0.137700352909
O     -0.012116648544    -1.589711301696     1.112296438420
C     -2.441195915958    -1.271844831829     1.322919588057
H     -2.281859061281    -1.511538499339     2.378064377273
C     -3.093926533978    -2.454167874592     0.644798227014
H     -4.068697657946    -2.664830828914     1.130493018825
H     -3.278300388550    -2.207077585853    -0.421677434771
H     -2.443453411969    -3.350233714185     0.716260181004
N     -3.292566873768    -0.093513482553     1.117296916075
C     -3.734932235957     0.805773406717     2.042754268694
O     -3.899563218333     2.023555093086     1.774994308553
C     -4.111105436738     0.314275958056     3.386151202862
H     -3.350880472957     0.678042402893     4.096078754606
H     -5.093210412050     0.756711255392     3.625371970526
H     -4.198527170074    -0.783902274001     3.392173715076
N      1.501129444070     0.239412404777    -1.862958490956
C      1.683731050942     0.654928798593    -3.155703460971
C      2.541778854673    -0.029836327891    -3.989486270208
C      3.222289541261    -1.136130205447    -3.535870002747
C      3.014035890944    -1.543115128934    -2.245421949509
C      2.118059273031    -0.828810256393    -1.417217024021
H      1.156733302936     1.527850681701    -3.522714881756
H      2.683292719595     0.312391878004    -5.001435610891
H      3.904747362489    -1.675875337300    -4.186996616850
H      3.509665056654    -2.400226318795    -1.835211683123
O      2.005442396661    -1.323061247420    -0.214295650571
H      1.100306508996    -1.332758548016     0.409505870767

