# STO-3G

title

0 1
C      0.626252101753     2.813235953241    -0.621951304261
C      1.917493692012     3.378620664597    -0.595529034259
C      2.203358966161     4.517747190043    -1.379065005234
C      1.204278481258     5.090779321968    -2.189334788577
C     -0.085578202293     4.523136583683    -2.209836338489
C     -0.382466561924     3.387291039236    -1.427073560243
H     -3.391222468938    -0.760354764680     1.982834111028
H      2.698215382981     2.942388415882     0.027042204796
H      3.202322018240     4.949362433439    -1.351482365450
H      1.426879244825     5.968656497223    -2.791777266369
H     -0.863965960134     4.964805582429    -2.829516710997
H     -1.378880447702     2.953175629200    -1.439519116718
C     -0.614145707531     2.737238898024     1.856473047013
H      0.021085536144     3.595513179444     1.677881415562
H     -1.638132029689     2.823186465847     1.515928419992
C     -0.197563618667     1.662400663267     2.621606104377
H     -0.881932919746     0.868723862640     2.875449067741
C      1.149338199821     1.519374502351     3.199062482485
O      2.094474191067     2.191565390262     2.706818440427
O      1.392864009112     0.452260055122     4.077301276710
C      2.770908419524     0.166255800815     4.354386535141
H      2.833344373233    -0.694765538358     5.054534771250
H      3.311002982139    -0.112554577040     3.420156344031
H      3.271857851498     1.040206005279     4.828722521943
Pd     0.221143886238     1.120774215263     0.375346455316
C     -0.775633324673    -1.898555410386     1.275608660920
O      0.001195444437    -0.815774612277     1.391723223088
O     -0.448854925591    -3.040767775410     1.671850451485
C     -2.168325181854    -1.709681875245     0.599262368251
H     -2.739344888098    -2.607008911137     0.868482611705
C     -2.063847504380    -1.669456500545    -0.913322426466
H     -3.070536562315    -1.522773706756    -1.356537390513
H     -1.399880263261    -0.842593889841    -1.232884916261
H     -1.643644822450    -2.625771631793    -1.288485676981
N     -2.934976720744    -0.553863797426     1.100968196618
C     -3.120819466265     0.690492770852     0.587063535819
O     -2.530039830658     1.191276087865    -0.401277041089
C     -4.130333713474     1.507139327602     1.300528866988
H     -5.092663891500     0.968870322054     1.250809770021
H     -3.806189185397     1.621179200395     2.348734080911
H     -4.219885061648     2.491748851326     0.807229015958
N      1.269813362189     0.069515259099    -1.122574375955
C      1.204131594143     0.397001888775    -2.451890038003
C      2.130106096119    -0.117358977250    -3.336321431212
C      3.127031889168    -0.960017675360    -2.896838464581
C      3.162855625888    -1.286628501025    -1.567169529865
C      2.193097768878    -0.752333298604    -0.693344299380
H      0.421680231024     1.053335754249    -2.812842221089
H      2.072521592534     0.152182299696    -4.378142532874
H      3.861015397798    -1.363257858054    -3.589464300594
H      3.901131396454    -1.950024170858    -1.162551237021
O      2.300189130762    -1.156376371703     0.557147351896
H      1.408518021160    -1.042304824697     1.108980517286

