# STO-3G

title

0 1
C      0.258080891578     2.550419711842    -1.141852145458
C      1.249934261470     3.528119596552    -1.389227835611
C      1.122672972834     4.416157389599    -2.478252947157
C      0.006311352809     4.336029111608    -3.332860959162
C     -0.979678263813     3.358957305520    -3.094400685225
C     -0.853723905653     2.467428308451    -2.007932470229
H     -0.872906228647    -1.908554931052     4.153739198688
H      2.118502617349     3.614555006176    -0.736654740469
H      1.893008634030     5.164495986105    -2.655548471294
H     -0.092544165487     5.019562596874    -4.173146601845
H     -1.842935919670     3.282472239778    -3.753117565048
H     -1.617237547253     1.706916781068    -1.853360889594
C     -1.192583273603     2.114742106942     1.558986584776
H     -1.895774295277     2.587803605835     0.881213825896
H     -1.488155262409     1.158391911086     1.970355774353
C     -0.054023000403     2.763767307628     2.035701516775
H      0.544938167046     2.280241442607     2.794534506554
C      0.277560178881     4.168752604688     1.746249531745
O      1.401397907295     4.609958898350     2.100824171797
O     -0.617750445641     4.954950744698     1.000385162962
C     -0.167401810226     6.274144276057     0.663536997461
H     -0.953642873610     6.789726676697     0.071163196602
H      0.028811713030     6.872930454471     1.581635666794
H      0.756406849761     6.230093898666     0.043636679194
Pd     0.520049493851     1.282707323618     0.385302181338
C      1.387042758993    -1.175624636808     2.004905747316
O      0.796024077297    -0.001768267436     2.056691704425
O      2.520936693885    -1.444153987036     1.527308389539
C      0.549918371248    -2.336721605886     2.664785404955
H      1.121418238276    -2.663678025884     3.542711585744
C      0.380183089903    -3.535843335765     1.753494989283
H     -0.166069452628    -4.336397326836     2.293529272727
H     -0.199586882725    -3.256145053280     0.853039158108
H      1.372409592387    -3.922669249187     1.441193238328
N     -0.775116385048    -1.913502808297     3.146277053483
C     -1.766658343652    -1.361265130075     2.427670608300
O     -1.776794721529    -1.135860778947     1.187534580553
C     -2.979268242431    -1.003993027498     3.195497968923
H     -3.738098480620    -0.590950979115     2.507832792348
H     -3.356649238484    -1.925408884826     3.670826217786
H     -2.700124243841    -0.259006544611     3.961042521481
N      1.286467961794    -0.078751347485    -0.982337757129
C      2.559388761725     0.127420596970    -1.442030802490
C      3.073874550963    -0.680002693451    -2.435336166343
C      2.321494224890    -1.708908880899    -2.955702914893
C      1.060931410937    -1.908461020195    -2.457291805181
C      0.574404161124    -1.065154679424    -1.435254035010
H      3.153203823654     0.939753751917    -1.039787758099
H      4.073521299865    -0.505301865463    -2.796655844707
H      2.720782665904    -2.351636965475    -3.735571535421
H      0.431299786492    -2.701272855560    -2.807443222512
O     -0.633785109663    -1.391074948492    -1.018784385418
H     -1.003165165121    -1.118416359210    -0.100745638285

