# STO-3G

title

0 1
C      1.519890091761     2.846558693749    -0.453753645013
C      2.674204889722     2.321200146376     0.169429273623
C      3.860549784012     3.081791180152     0.219109689161
C      3.909989945946     4.366539886308    -0.356968550307
C      2.763153666953     4.888218261676    -0.985025764889
C      1.570819859732     4.133782215437    -1.032423461979
H     -3.185433096043    -0.679062746471     1.499489786851
H      2.648727588245     1.328250757620     0.612516882115
H      4.742810268426     2.665744568144     0.702617784718
H      4.827474631934     4.949634387117    -0.319393278525
H      2.790211635691     5.878940108492    -1.435179117742
H      0.695731530635     4.557934649376    -1.521667531784
C     -1.454719718543     3.278963108167     0.456160283030
H     -1.060499884395     4.277488198044     0.303364224273
H     -2.374717866609     3.010164946050    -0.052834988011
C     -0.961149816503     2.442874408967     1.461700020312
H     -1.472528304775     1.511450341023     1.657586327699
C      0.072589878755     2.819888404778     2.439306352470
O      0.385915335574     1.994862797889     3.337191507565
O      0.652361667574     4.098797462516     2.380349170359
C      1.760331967416     4.324445901762     3.261892406223
H      2.145053579273     5.355727349485     3.110548136137
H      1.449874525125     4.218054811000     4.325938054218
H      2.588900889704     3.613311542035     3.042206459466
Pd    -0.158541796835     1.763861284402    -0.540270269603
C     -2.160579462717    -0.507671356963    -1.162670029169
O     -1.986184314756     0.627483978608    -0.516136175623
O     -2.054875682893    -0.705966618691    -2.401681444623
C     -2.499449294035    -1.721945843886    -0.216276505039
H     -1.728870461848    -2.483312182017    -0.377914676269
C     -3.852426758940    -2.329528134518    -0.512923372979
H     -4.022272963917    -3.200271747354     0.153483686868
H     -4.643599901644    -1.575331166328    -0.326982558981
H     -3.898687200763    -2.663949433162    -1.570016001079
N     -2.478795649366    -1.341615502192     1.199671569930
C     -1.435781748392    -1.590739137165     2.004232847455
O     -0.361261988608    -2.163547864818     1.643084635010
C     -1.581838770098    -1.182043642788     3.414613703105
H     -0.665008575996    -1.458617478745     3.964872956982
H     -1.724291279223    -0.090225830954     3.449170916441
H     -2.458966637236    -1.703724109490     3.834636611371
N      0.816584661126     0.293097261358    -1.679471473575
C      0.855084494360     0.244642364815    -3.046505110856
C      1.284776638876    -0.905358846695    -3.680933820652
C      1.657308358760    -2.011818680314    -2.947186319908
C      1.610597119187    -1.932644318698    -1.578277850001
C      1.178782971328    -0.728961867682    -0.977907771028
H      0.547350595402     1.106594790284    -3.626617544386
H      1.303269624493    -0.940081713324    -4.757405401732
H      1.984810246347    -2.922204709158    -3.441947208209
H      1.902748829241    -2.751194751002    -0.952090040035
O      1.162979064051    -0.663695189605     0.353346975240
H      0.680898452304    -1.407282337206     0.868526062249

