# STO-3G

title

0 1
C      0.883241987976     2.560974423834     0.217204585043
C      1.892234853735     2.460024844507     1.199862394388
C      2.853827651903     3.483304428588     1.339165573318
C      2.818944450755     4.613826691272     0.500679101433
C      1.817742448347     4.714813437353    -0.484691424414
C      0.854647869566     3.693806913343    -0.627493374470
H     -1.562430267645    -2.595022927132     1.892018693013
H      1.946074557833     1.584077764660     1.842909219133
H      3.630311928659     3.388881797550     2.095930055535
H      3.563689472884     5.399074316049     0.608348178891
H      1.783917139532     5.581407400743    -1.142449000483
H      0.086159969872     3.797235368784    -1.392130037523
C     -1.329428250181     1.291552732282     2.079547267015
H     -0.541465317648     1.595795185056     2.761709982987
H     -1.683794961194     0.269269575483     2.135846993286
C     -2.037333989508     2.194427977816     1.288615055837
H     -2.878666951601     1.833140156422     0.713877576209
C     -1.873369890832     3.656616483672     1.345547627588
O     -2.471264073389     4.365214439951     0.494572659078
O     -1.008823897059     4.222342028180     2.298671201476
C     -0.799727311613     5.637168834681     2.195019473497
H     -0.092870752670     5.962748857089     2.988040340577
H     -0.353215805557     5.898693015755     1.209129908740
H     -1.756511717634     6.190835125512     2.328785964633
Pd    -0.482691571076     1.106145127206     0.018389196461
C     -1.801092282247    -1.537998532823    -0.805617921097
O     -2.011011514326    -0.380459089824    -0.199861650736
O     -2.318049021020    -1.913611277044    -1.886561487931
C     -0.756560570086    -2.479369886712    -0.067287899461
H      0.236469059046    -2.225691188327    -0.453181120974
C     -0.997431362685    -3.951932465917    -0.321822152300
H     -0.233788258651    -4.554561781457     0.212077020147
H     -2.004210931121    -4.230995928718     0.049681666726
H     -0.934681949983    -4.168044591919    -1.408595263750
N     -0.741057577958    -2.278648644670     1.389816610461
C      0.214997310351    -1.630101656762     2.068859387556
O      1.189647969371    -0.999777383274     1.566700911423
C      0.110141463865    -1.678786713476     3.541142575861
H      0.940259272993    -1.100497685817     3.984614799172
H     -0.863050448810    -1.258893164226     3.843046974846
H      0.178508315855    -2.737223870723     3.849147278636
N      0.472205865677     0.471770736201    -1.717727138179
C     -0.151876755520     0.824845609731    -2.884853690667
C      0.437838385917     0.532673613413    -4.096670250994
C      1.646500901573    -0.125870651300    -4.144687994680
C      2.235765369792    -0.488738625556    -2.961980510412
C      1.598710804474    -0.177284281939    -1.742563730283
H     -1.101677779936     1.346299603730    -2.852760144823
H     -0.059048336228     0.816049054114    -5.010148747849
H      2.115340138902    -0.360985062927    -5.096500164709
H      3.168581025785    -1.015394394332    -2.929794126475
O      2.236459814877    -0.620191965948    -0.679955668376
H      1.756745973051    -0.664379494250     0.232160488848

