# STO-3G

title

0 1
C      0.339688600009     2.635721091749    -0.777630792516
C      1.025893245225     3.628471171367    -0.046577583108
C      1.595527981122     4.730412955071    -0.720622541632
C      1.485154921137     4.846374843193    -2.119259785099
C      0.806738999354     3.849813148883    -2.847855837402
C      0.237852668468     2.744762613576    -2.181778874734
H     -0.290948257894    -0.237666931741     3.277558348924
H      1.132942391222     3.553292386190     1.033177834679
H      2.122668868573     5.492349725164    -0.149851210060
H      1.925126015551     5.696879154474    -2.634810473254
H      0.721382366669     3.924109189082    -3.930331002509
H     -0.275976347198     1.977672074088    -2.759405434934
C     -1.665985314180     2.251680001639     1.582533488421
H     -1.140778127681     3.175085474189     1.800609842648
H     -1.695333158361     1.502288980383     2.365901684946
C     -2.476882316350     2.101314968737     0.455617205657
H     -3.075016978831     1.206207479168     0.353375175381
C     -2.770510965446     3.178381215719    -0.505322109623
O     -3.445667094745     2.905632232277    -1.531722039331
O     -2.258810330086     4.468569925960    -0.282884598117
C     -2.437330624789     5.407241642618    -1.351847727892
H     -1.980486379311     6.378936941391    -1.066386742375
H     -1.932355740879     5.049646390005    -2.277727674481
H     -3.518792724081     5.574317226738    -1.557509949091
Pd    -0.486335598780     1.047718412941     0.111886527172
C     -1.187202444927    -1.792549737369     1.289343136262
O     -1.536128352930    -0.548155767096     1.185221012026
O     -1.096342718690    -2.612668147973     0.306299058383
C     -0.683044195071    -2.218815178149     2.699113685358
H     -0.149346068110    -3.169104733267     2.612078567705
C     -1.795358048684    -2.377570718018     3.710139780234
H     -1.361393462798    -2.649357972371     4.694578300288
H     -2.343143187319    -1.418432934338     3.817517679141
H     -2.498456707070    -3.171838918526     3.385498953501
N      0.196227735590    -1.124061291305     3.148375302921
C      1.488391920051    -0.913881408993     2.757429911682
O      2.001161919445     0.231227803506     2.693699517449
C      2.312186745290    -2.096879136929     2.427261601748
H      3.346956694170    -1.757107544463     2.242120922915
H      2.287422060092    -2.779960160116     3.292628542314
H      1.910945204724    -2.569052161902     1.514440222315
N      1.124064878219    -0.076766015292    -0.645634425572
C      2.394818351408     0.380441458124    -0.403321717370
C      3.464818044223    -0.163201721896    -1.084026417977
C      3.270404430421    -1.155001766851    -2.017824236157
C      1.994904413724    -1.606770728009    -2.229231506981
C      0.924287155074    -1.046991627918    -1.496877890484
H      2.560171432460     1.174244348433     0.315026013256
H      4.456539833842     0.211637136928    -0.890667893595
H      4.108906401982    -1.574746052508    -2.567123170136
H      1.776748756589    -2.384278467938    -2.933772478765
O     -0.254926660679    -1.580625226006    -1.748664084398
H     -0.802263419274    -1.967629616436    -0.910149803641

