# STO-3G

title

0 1
C      1.442008312055     2.742355205997    -0.502794446743
C      2.728959358151     2.395339591963    -0.033742095890
C      3.738980402524     3.374191935302     0.058166936820
C      3.478344827613     4.703690020138    -0.328307131000
C      2.200039982692     5.049187225591    -0.804816510057
C      1.182464412729     4.074208092125    -0.891873005200
H     -3.335922718558     0.156360429903     0.930861059413
H      2.951859597255     1.370044677000     0.255908701878
H      4.724480390301     3.095060405565     0.425327248514
H      4.257991852745     5.458263746865    -0.256186614631
H      1.986444370244     6.074807308678    -1.099250535771
H      0.199872137266     4.369903731168    -1.253507776259
C     -1.535151168841     2.438578124673     0.504374079000
H     -1.442655985221     3.504249121118     0.324917337790
H     -2.381091957110     1.937240481936     0.047341073408
C     -0.772281203430     1.798125989630     1.476403835478
H     -0.995331070602     0.779119487309     1.748901246980
C      0.159738051847     2.480623954233     2.390282475585
O      0.288479831179     3.733105944799     2.336431636895
O      1.004788453633     1.692289809228     3.190468037177
C      1.975443502232     2.409843465626     3.965371571402
H      2.582191254076     1.689949077612     4.555272685526
H      2.662044178123     2.985262406686     3.302575182915
H      1.476183202666     3.108284640286     4.675033233732
Pd     0.049675428292     1.314676802515    -0.638305375859
C     -1.476706634501    -1.346788260641    -0.092556287803
O     -1.542491293120    -0.188711272285    -0.664608946995
O     -0.407038046348    -2.051361047500     0.042468473153
C     -2.766928594780    -1.836159025509     0.614295629415
H     -2.516730267749    -2.721649162039     1.202885156852
C     -3.875642251189    -2.183410456855    -0.353201995879
H     -4.767915179839    -2.518251710902     0.214870445597
H     -4.149876756694    -1.282724227307    -0.941376737469
H     -3.549972077030    -2.992110010982    -1.039133347176
N     -3.216334638383    -0.713500488080     1.447326397926
C     -3.121105309823    -0.525195274318     2.795454608293
O     -3.211755418361     0.608810023505     3.324164567245
C     -2.918829283072    -1.718052547358     3.645269203883
H     -3.732324396774    -2.431600345515     3.432274984395
H     -1.926136890414    -2.140994494039     3.422705195332
H     -2.960410380980    -1.403147525525     4.704186096201
N      1.187178011497     0.515822405813    -2.190476316689
C      1.429572919907     1.321532824879    -3.271873065760
C      2.341949197621     0.938609066149    -4.231599126116
C      3.021587112106    -0.251902871959    -4.114151993740
C      2.757426049483    -1.046460231131    -3.030988651777
C      1.807545997703    -0.632787109271    -2.069431879199
H      0.905021914198     2.264694073607    -3.371096415973
H      2.529588032480     1.585098074068    -5.073147986305
H      3.747933500914    -0.554952248664    -4.863616666361
H      3.251630265168    -1.985994263561    -2.883923146811
O      1.646780360899    -1.474701176168    -1.087258694003
H      0.704102749434    -1.638261165571    -0.532670709289

