# STO-3G

title

0 1
C      0.519198561301     2.639614749116    -0.534666916729
C      1.325649229826     3.464282151833     0.275559460395
C      1.916963204692     4.619845017242    -0.277199064811
C      1.711315626271     4.949926167270    -1.630749331250
C      0.915999245962     4.114631739937    -2.438747799940
C      0.321987239799     2.955961027121    -1.895378963335
H      0.227260296012     0.553505999349     2.977227411206
H      1.522279942811     3.200782644290     1.311465255874
H      2.538432667677     5.254913446868     0.350958507202
H      2.165945280145     5.844578197188    -2.049916005941
H      0.756824312595     4.358780691705    -3.487164941989
H     -0.283627887225     2.314581299288    -2.533520258696
C     -1.595286557055     2.023579154926     1.686208707504
H     -1.153533866638     2.962016376190     2.006405292872
H     -1.697006942192     1.239767405273     2.428419945490
C     -2.311402811816     1.908832120938     0.489264268820
H     -2.847573473467     0.991390652429     0.287165326190
C     -2.623848773813     3.036008594865    -0.408201795592
O     -2.355244173076     4.214307988554    -0.055459087169
O     -3.212299678199     2.758557911553    -1.653034280599
C     -3.430985021221     3.891877735356    -2.505316000694
H     -3.890801884325     3.553764323507    -3.458883738179
H     -4.122881095809     4.620839749954    -2.025107989767
H     -2.468161467734     4.400058277558    -2.742735741190
Pd    -0.259855733613     0.976617785609     0.244179348788
C     -1.374816657667    -1.694849888043     2.006943581867
O     -1.255384635785    -0.874771578044     0.952314365057
O     -2.203103538130    -2.626704515266     2.082869792361
C     -0.360083213872    -1.473623611625     3.188629383193
H      0.154509764544    -2.435573140335     3.303353768130
C     -1.059947146407    -1.191168581802     4.501240353532
H     -0.306317540140    -1.104317851910     5.311563768285
H     -1.620305248033    -0.237929395838     4.435936820392
H     -1.763080414765    -2.013985497057     4.749046142324
N      0.594840737356    -0.394502198555     2.945730730254
C      1.806365341980    -0.434893618290     2.329706948885
O      2.385994182691     0.599946009591     1.909778695245
C      2.456768462007    -1.750590773323     2.156326196025
H      3.437872816035    -1.590641735855     1.673665851712
H      2.597760674250    -2.197600614973     3.154333170892
H      1.823797425403    -2.378029039469     1.505705217048
N      1.075637917281    -0.176279877711    -0.916422150168
C      2.363925334828     0.227651741789    -1.160799813013
C      3.162680177496    -0.501925289752    -2.018587784280
C      2.679513829420    -1.632863663239    -2.637288801723
C      1.397367297471    -2.027581050756    -2.360476850154
C      0.614162866827    -1.269538866874    -1.464921690036
H      2.760365518061     1.117147145198    -0.686721192746
H      4.170524489239    -0.170299679176    -2.207978234368
H      3.303611108220    -2.203813799445    -3.319626120436
H      0.965951560837    -2.907073332826    -2.795678238502
O     -0.584190955297    -1.765059973384    -1.238453706138
H     -1.051323509515    -1.420428387583    -0.356033016079

