# STO-3G

title

0 1
C      0.546733222816     2.311277351079    -1.293787886657
C      1.122838292052     3.595662748935    -1.140835863489
C      0.799477945479     4.641099216565    -2.030817138560
C     -0.116958412292     4.431117913664    -3.079464031154
C     -0.699130546879     3.159270628319    -3.238449046441
C     -0.363919968404     2.106995319314    -2.360631980793
H      0.525309929263    -1.637012945371     0.780581512866
H      1.810969691340     3.789587603760    -0.324268521075
H      1.257481904826     5.619854249811    -1.897281567680
H     -0.371182973235     5.241005583754    -3.760045630512
H     -1.404349602915     2.977676950805    -4.048246271775
H     -0.808611278680     1.127508170528    -2.528601955088
C      0.670328995160     1.842895824860     1.497060469876
H      1.407472238022     1.590520849192     2.277766772291
H     -1.588945221476     0.607768412550     2.323214952970
C     -0.326455552672     2.723033797179     1.799627007444
H     -1.029283756937     3.032449849784     1.036058500157
C     -0.495668714548     3.393284809391     3.102620026938
O     -1.438636332168     4.216279659307     3.242833382604
O      0.368606891774     3.081821115030     4.168080821544
C      0.104113446469     3.751494808496     5.408492762444
H      0.846664829977     3.424361783536     6.168086140811
H      0.191175787101     4.855233787923     5.289092810522
H     -0.912795288532     3.498534128430     5.785521702280
Pd     1.051867008937     0.753894485053    -0.141833349900
C      1.040091879535    -1.048972045476     2.621123059563
O      1.313779386574    -1.234719094276     1.273058807003
O      1.935020945850    -0.880398686619     3.445733282208
C     -0.476142335606    -1.041249473417     3.016548976401
H     -0.516711566348    -0.481220601012     3.955184638492
C     -1.010996878156    -2.435024255907     3.278009146576
H     -2.073965351615    -2.373601180698     3.590585698943
H     -0.941439622634    -3.051005830201     2.358347729903
H     -0.424715126991    -2.922346558167     4.084542758750
N     -1.375060470728    -0.355243615970     2.068305133255
C     -1.574920891344    -0.686696333549     0.790380132009
O     -0.996566626988    -1.671054557927     0.208170471348
C     -2.547419434360     0.123349722911     0.037736105671
H     -3.505725781012     0.087385861348     0.585380572801
H     -2.179806067872     1.159959618996    -0.017826669617
H     -2.680680977124    -0.297399160680    -0.975446228799
N      1.638100428220    -0.397246082662    -1.884658768702
C      2.864616352814     0.007741277830    -2.343933159808
C      3.287828488026    -0.354780264958    -3.606190417495
C      2.488975231862    -1.134663438595    -4.412605475656
C      1.274367927215    -1.537573505008    -3.924537322904
C      0.886373553534    -1.148897861060    -2.625018077294
H      3.496372724822     0.627241912038    -1.717964097428
H      4.251129050220    -0.024706931097    -3.959446049998
H      2.815367638499    -1.425898035301    -5.407504380665
H      0.608670741532    -2.154938508382    -4.494222066108
O     -0.310066249043    -1.611650811854    -2.276136183942
H     -0.587484537534    -1.555626626955    -1.306049025726

