# STO-3G

title

0 1
C     -0.449364445989     2.371688973962    -2.127401081936
C      0.208278812777     1.370724024125    -2.889273580108
C     -0.520813169263     0.615837757502    -3.838272514000
C     -1.876935299339     0.893292203812    -4.058717322846
C     -2.537783892455     1.901198256525    -3.307361243374
C     -1.832506939389     2.630527411272    -2.346211473625
H      0.113616628422     3.072088758907    -1.521910220567
H      1.269359643555     1.176859446106    -2.777345982539
H     -0.013471885741    -0.168010807121    -4.391116523967
H     -2.431189029540     0.334135227975    -4.809086722933
H     -3.591284851005     2.106519409712    -3.481299391650
H     -2.332028240878     3.403964835641    -1.767512624003
C      0.985115415022     2.539905392492     0.846734998233
H      0.971394497440     2.328112691862     1.906406979224
H      0.343597095102     3.364115235697     0.547235567414
C      1.956061431303     2.004735815031    -0.024131741566
H      2.052375911687     2.426340530269    -1.015314391749
C      3.142647361986     1.238487489394     0.396699575313
O      4.092674252828     1.122665987482    -0.419534544396
O      3.259452508506     0.777831891989     1.721963819350
C      4.442108920716     0.015556153309     2.006511309924
H      4.434170383449    -0.303638424660     3.070095862502
H      4.488417237961    -0.895979844689     1.365715322540
H      5.357661612729     0.627112610045     1.837038853308
Pd     0.057121949369     0.780518016211    -0.225419702205
C      1.671483647096    -1.649286902935    -0.521201550297
O      2.785408127353    -2.192858607846    -0.723113705705
O      0.907222478549    -1.024442623098    -1.396243551937
C      1.063148119133    -1.724759343855     0.941632073240
H      1.881847931159    -2.013685932754     1.612218220185
C     -0.039512735745    -2.766132477320     0.995104171559
H     -0.438405981613    -2.876469859498     2.020245365447
H     -0.869760055156    -2.456136736393     0.331257973023
H      0.349781481455    -3.748895276444     0.656343324637
N      0.484323416514    -0.418132556686     1.332331548359
C      0.182300689424     0.002413121013     2.554803853603
O     -0.535920261970     1.042319042897     2.815472492713
C      0.773856402466    -0.686507294915     3.722783416547
H      0.409167741278    -1.722322421104     3.767140984216
H      1.870597478359    -0.645225551086     3.619908377457
H      0.474177400035    -0.154372706354     4.644715795958
N     -1.976599947153     0.151754676574    -0.214570752682
C     -2.392600718356    -0.699724272421    -1.201870204054
C     -3.742260886649    -0.905447519158    -1.407550536517
C     -4.675496513275    -0.248492478862    -0.636350859080
C     -4.231327474996     0.593575293021     0.349513839845
C     -2.842995168574     0.762394590493     0.549093607859
H     -1.665912142141    -1.207765608879    -1.823447930101
H     -4.060508670438    -1.572053989775    -2.191468663626
H     -5.738781965637    -0.398153911049    -0.802827753874
H     -4.904605613189     1.126189188691     0.990283077005
O     -2.527490483054     1.573267703330     1.528862792815
H     -1.566887449634     1.426294904780     2.023797213933

