# STO-3G

title

0 1
C      0.787400571757     0.082413950739     3.344127048122
C      0.374186011238    -0.048306542348     4.684918948716
C      1.320763279799    -0.303414156327     5.697475739386
C      2.686320337222    -0.425735624453     5.371593184665
C      3.102578969200    -0.296373020581     4.031413139404
C      2.154288013507    -0.045150634872     3.020326962341
H      0.060455218779     0.291032398530     2.565408727254
H     -0.678448694474     0.053485193912     4.939851144294
H      0.998009218664    -0.400180011595     6.731937674496
H      3.418138464233    -0.617229135193     6.153495699181
H      4.155818182258    -0.392871692675     3.775948768413
H      2.469392895732     0.039984432673     1.983108058004
C     -1.045301948418    -1.919761499725    -0.858800320614
H     -0.127417266480    -2.078312813031    -1.413700307991
H     -1.952626841079    -1.961755865003    -1.452510208309
C     -1.103536363516    -2.042706633538     0.545205887476
H     -2.073921523552    -2.105246222258     1.014272144966
C      0.010257254556    -2.498249309665     1.395433004516
O      1.139094017582    -2.722599473792     0.882766707630
O     -0.289438305657    -2.898880737475     2.708629809094
C      0.788673896513    -3.490558501957     3.447861155282
H      0.441308652056    -3.734155334196     4.474473127780
H      1.133814066110    -4.430008892862     2.960565763534
H      1.645577605187    -2.786807643327     3.536515171176
Pd    -1.098323460213     0.158235021862    -0.171296382325
C      0.592375170497     0.544617616574    -2.662415141330
O     -0.669720100588     0.870761342171    -2.314445685620
O      0.964674610942     0.202976332155    -3.798508689246
C      1.599603020132     0.692367266301    -1.447906932009
H      2.172696595098     1.607699433549    -1.663597991458
C      2.581040821242    -0.450030291248    -1.342429506072
H      3.306277803313    -0.240133382047    -0.529975564951
H      2.052767964967    -1.389272966063    -1.096253633960
H      3.132261065516    -0.577026502804    -2.297326948171
N      0.852523634649     0.785138458459    -0.189946988293
C      0.593100583938     1.916908526547     0.474703139079
O     -0.551453615239     2.004736863278     1.079064845007
C      1.570979184904     3.014948281221     0.568777212909
H      2.531712748136     2.588332363420     0.904318931011
H      1.657962778244     3.499164330986    -0.416684407861
H      1.201950336084     3.746132836409     1.311340212133
N     -3.135865438452     0.085161984969    -0.331032258772
C     -3.944057143371     0.104147221475     0.771960097998
C     -5.314314374889     0.095746599029     0.618692753823
C     -5.879503220930     0.087938292113    -0.638152628686
C     -5.049144568529     0.100570364761    -1.728421091935
C     -3.649708388304     0.123720969997    -1.543749583194
H     -3.505236700295     0.100253596362     1.763267101024
H     -5.945492981701     0.099323081052     1.492300422862
H     -6.959229261826     0.082773510481    -0.762084982221
H     -5.427542101506     0.118211199759    -2.731159838081
O     -2.951662347772     0.175386861686    -2.641692804326
H     -1.867665438855     0.462028471475    -2.632932783600

