# STO-3G

title

0 1
C     -3.173635246987    -0.572988399311     1.277048218238
C     -3.294867678947    -1.727690704356     2.091017891756
C     -4.012500005984    -1.655302262345     3.299299628866
C     -4.610409679670    -0.439463596367     3.695136262286
C     -4.494577776824     0.709610994249     2.883861806200
C     -3.783592314736     0.642210827009     1.670529746356
H     -2.720224934412    -0.668236531457     0.296828755427
H     -2.839927934050    -2.649548326713     1.743665284941
H     -4.121341748645    -2.539751320851     3.921922928139
H     -5.173885842513    -0.388153837141     4.624041042629
H     -4.961112495928     1.643389472009     3.187508164932
H     -3.710092092597     1.522831746261     1.036160689593
C     -0.926539093429     0.205476237766     3.657973390797
H     -1.985576696395     0.431154171921     3.668301146136
H     -0.613450893266    -0.711854330936     4.142099855777
C      0.023617445086     1.133915870571     3.255280357378
H      1.074405098895     0.932525027559     3.402351353152
C     -0.280741521827     2.483365961300     2.750008209474
O     -1.412458509869     2.710354337319     2.241729020238
O      0.746172959495     3.440228060517     2.712897958929
C      0.465089081687     4.634439030770     1.970661573269
H      1.348979838654     5.306933439777     2.010040228847
H      0.265322022031     4.393372882561     0.901465695813
H     -0.406557330484     5.176109574707     2.402400451343
Pd    -0.529016720533    -0.225113621988     1.440239418824
C      0.936445489103     1.173685678959    -0.871031397232
O      0.986068801444     1.210177352796     0.478820809682
O      1.668735053900     1.838461209571    -1.627214431556
C     -0.161987249785     0.215642951713    -1.429169547646
H      0.234495903968    -0.173042788888    -2.376154112713
C     -1.441223336094     0.973770069965    -1.722866281678
H     -2.211524432723     0.279349822119    -2.116329283430
H     -1.818465318116     1.443963456276    -0.791116342749
H     -1.250766109597     1.766518174985    -2.476666902764
N     -0.475369442470    -0.857644715338    -0.464574830285
C     -0.737171580292    -2.156736090458    -0.702110206149
O     -1.121841686796    -2.970853072670     0.192360797783
C     -0.576148526750    -2.666266692041    -2.084843280693
H     -1.255054093339    -2.107442304518    -2.749408198311
H      0.481205272150    -2.546694453378    -2.374221219312
H     -0.842327242801    -3.739410036979    -2.098922784448
N      0.998880714911    -1.657352468666     2.093337575200
C      0.648678119731    -2.919707105021     2.491872609250
C      1.624866346144    -3.807757516573     2.898062876069
C      2.952701496559    -3.441845353340     2.886951343083
C      3.276023539752    -2.177098591849     2.471004213533
C      2.252029979735    -1.296389072254     2.058115435846
H     -0.394556398162    -3.204737043705     2.544272617455
H      1.338855131806    -4.795268820610     3.219991779261
H      3.724654602764    -4.138677688084     3.202144895886
H      4.289371878727    -1.830489227782     2.434748531379
O      2.682923321553    -0.114504920833     1.675005885738
H      2.010816280139     0.533020103239     1.161297333032

