# STO-3G

title

0 1
C     -1.241416483926     1.770324388697    -2.378519018033
C     -0.900511225400     3.077529623176    -1.928151644280
C     -1.736762355523     3.749317335856    -1.031094604972
C     -2.922950362374     3.123577317978    -0.567935416106
C     -3.260712186771     1.828602253763    -0.992286270858
C     -2.434418463649     1.154027180846    -1.917494847681
H     -0.701247521503     1.362703416156    -3.224415134963
H      0.009331693396     3.550689763023    -2.290319305531
H     -1.479605350864     4.749440823109    -0.690813655348
H     -3.572812559202     3.654490557425     0.124210695232
H     -4.154970634823     1.337864460334    -0.621835323872
H     -2.724661517598     0.167447516841    -2.261546757543
C      1.194291150637    -0.307712756329    -3.050408649679
H      2.157452860989    -0.722973211646    -2.785312124503
H      1.235136345322     0.691528160840    -3.473594011308
C      0.025372619540    -1.099377673925    -3.128317586109
H     -0.857284544081    -0.694614488034    -3.603256609419
C     -0.003550785799    -2.569038061985    -3.010401530141
O      1.049895066558    -3.206505423526    -2.739204736626
O     -1.198942268173    -3.233271603733    -3.324217103513
C     -1.217231024240    -4.645387350275    -3.074124397610
H     -2.217446183803    -5.051358020364    -3.338286376961
H     -0.451986028386    -5.169312460795    -3.690095938031
H     -1.039739870705    -4.857774576034    -1.995248930590
Pd     0.015918285410    -0.019442305910    -1.151964297242
C     -1.408500853641    -2.276268791974     0.077420195403
O     -2.108633935376    -3.315283594473    -0.005402533387
O     -1.788680235639    -1.034407725887    -0.159087872967
C      0.095983240920    -2.418118777425     0.555185657157
H      0.378444217418    -3.469542946811     0.417678330513
C      0.209728385503    -2.039859834723     2.020620390425
H      1.239109819574    -2.190931162517     2.394617350942
H     -0.051408224900    -0.970274795920     2.144410786260
H     -0.484057841741    -2.657976320316     2.627864521958
N      0.979020712430    -1.516687374844    -0.220620310328
C      2.301289191209    -1.581790064010    -0.337176431331
O      3.039364659424    -0.633906408375    -0.808688134473
C      3.000601110763    -2.836522952814     0.017861633956
H      4.073894267513    -2.723431835635    -0.219534280450
H      2.883408273549    -3.035162380492     1.091775246842
H      2.579877342208    -3.653042844785    -0.595837622342
N      0.442005304476     1.327600407815     0.452556657060
C     -0.577847246760     1.663723156650     1.300883917433
C     -0.419900159240     2.715402159557     2.181488618024
C      0.752523804959     3.438145426655     2.204660075765
C      1.760193032138     3.074704503986     1.349741914191
C      1.573813726649     1.977838327267     0.478946417460
H     -1.508478209776     1.110819851797     1.278477895585
H     -1.230436097888     2.977286203463     2.840705183151
H      0.877256417741     4.273280374587     2.888527550632
H      2.700477118852     3.587422932909     1.325907609297
O      2.607410755655     1.702292676094    -0.278949122371
H      2.727100058299     0.680450172803    -0.633031196962

