# STO-3G

title

0 1
C      0.820321930705     4.313017148639     0.017770760237
C      2.187334292112     4.650893177571    -0.104566993420
C      2.652517436104     5.390037075160    -1.208060524968
C      1.752676050014     5.808197967576    -2.208785498422
C      0.386693532739     5.486362599128    -2.091417627971
C     -0.073472811641     4.746084455366    -0.985283922330
H     -0.701092926659    -0.563030468178     0.614885989946
H      2.888410415028     4.345010926354     0.671594599368
H      3.706580971642     5.650185265782    -1.280748926078
H      2.108236145265     6.387008531933    -3.058233344890
H     -0.318080313446     5.815726324493    -2.851863857635
H     -1.132579744425     4.507568504699    -0.897293053810
C      0.338553694357     3.486063756849     1.196614582977
H      0.754158356060     3.895142216589     2.133048164530
H     -0.752277501263     3.539399373751     1.303065336607
C      0.760460398924     2.007235493906     1.079815647870
H      1.757979932797     1.880811808561     0.669762786481
C      0.599631777985     1.112023138621     2.250172160391
O     -0.206895621723     1.422764647740     3.168011325745
O      1.506141996554     0.050161078044     2.405653568814
C      1.275399298508    -0.806898519003     3.531159806933
H      2.034128962402    -1.618452992537     3.536015708156
H      1.362863136084    -0.240180500354     4.485661908169
H      0.267047153532    -1.273534913124     3.467216690040
Pd    -0.421730510568     1.390588067675    -0.498227451648
C     -2.259250466270    -2.817188611769    -0.259635191956
O     -1.537083578266    -2.387716793206    -1.327868869281
O     -3.295294993191    -3.488379602586    -0.366829614459
C     -1.668659749876    -2.320295973512     1.106046688523
H     -0.625136526248    -2.655803129944     1.155671935978
C     -2.391782780748    -2.834736127761     2.332198713852
H     -2.054893990767    -2.279346166725     3.231265778913
H     -3.487762564445    -2.733320948712     2.216024690561
H     -2.164418282912    -3.912058581146     2.469894240104
N     -1.580726876252    -0.843263063514     1.087004814869
C     -2.473740410007     0.155608559721     1.124174123330
O     -2.192055004038     1.329916369681     0.683265046610
C     -3.817324152882    -0.061776752139     1.678389712747
H     -3.707403985061    -0.352759555334     2.735869047999
H     -4.381030416787     0.886067940243     1.615387186438
H     -4.325944153793    -0.837137065112     1.079734495614
N      1.206768864552     0.824044367196    -1.553526198526
C      2.035243564715     1.630980238622    -2.282966434282
C      3.115045518975     1.085038254505    -2.943845769796
C      3.369511945687    -0.267958422936    -2.880100159664
C      2.526852985850    -1.061002416549    -2.145472970258
C      1.426406481285    -0.482756765715    -1.470393319576
H      1.838766416113     2.694175385855    -2.344908598734
H      3.763046668562     1.728385760034    -3.516020803342
H      4.220948379160    -0.697217886464    -3.401452489498
H      2.675665453075    -2.117657837188    -2.053933073400
O      0.673289580953    -1.281863628347    -0.788712364113
H     -0.624552591711    -1.940995572345    -1.134431462479

