# STO-3G

title

0 1
C      2.273182649576     2.486297894099     0.261362303967
C      2.702615957775     2.777795973961    -1.051583766805
C      3.277922674782     4.022455823985    -1.371073616843
C      3.441394108381     5.003945353869    -0.375766283564
C      3.037017975050     4.721844933905     0.944126084360
C      2.464583062888     3.475725681750     1.256746267197
H     -2.458430313747    -3.163112559898     2.534435524485
H      2.599996636389     2.021770699499    -1.826034289243
H      3.602605603923     4.218632330812    -2.390901366002
H      3.887144357970     5.965376459073    -0.620385843649
H      3.176683836772     5.465499496817     1.725939936369
H      2.172381283979     3.266786585897     2.285984361190
C      1.632643438460     1.153300571744     0.610817673220
H      1.816558358221     0.418021802394    -0.174752566557
H      2.126594416324     0.734022207749     1.500183422490
C      0.112450140381     1.179959711100     0.931434870590
H     -0.070531541915     0.510577416860     1.770827649466
C     -0.575169009652     2.462411171120     1.165517367980
O     -1.423541284583     2.820510129791     0.306363550211
O     -0.624871604393     2.960448561373     2.478383632003
C     -1.378888335331     4.167167386290     2.656899166764
H     -1.328269508261     4.478290065314     3.722564019851
H     -0.960330961982     4.990191069148     2.033838427086
H     -2.449565385040     4.008701062307     2.393776967938
Pd    -1.125820948488     0.319898673483    -0.465233198148
C     -0.299617398366    -2.506869714893     0.320443584447
O      0.888882182769    -1.993841608250     0.020002211764
O     -1.155341496522    -2.966195691637    -0.470410105227
C     -0.563231900777    -2.426799302941     1.858436610819
H     -0.069125458591    -1.518951902170     2.216404572117
C      0.017618176995    -3.610909105424     2.601308539789
H     -0.167619229995    -3.495972252518     3.689448928064
H     -0.469673188691    -4.543806589168     2.248880991056
H      1.111111824946    -3.676781775205     2.423215495222
N     -1.998038316095    -2.351449800396     2.144063646521
C     -2.776582309750    -1.338349641957     1.732472916382
O     -2.396544770827    -0.309097094427     1.104408872657
C     -4.205532975996    -1.433036972400     2.087676416414
H     -4.278836876660    -1.505802619483     3.186146357433
H     -4.730353570109    -0.532274054507     1.724117703440
H     -4.619152118442    -2.338252873197     1.608890426092
N     -0.073466199043     0.864995817453    -2.106145224062
C     -0.428082751928     2.042110409360    -2.708806334268
C      0.133049479073     2.397513217225    -3.916332020795
C      1.058656739118     1.584034740538    -4.527061902092
C      1.418595050861     0.421043967448    -3.901669583668
C      0.839374263237     0.074143655882    -2.657221880519
H     -1.166941155847     2.686295276615    -2.248882365908
H     -0.159602882164     3.324264523839    -4.381626123409
H      1.501522487881     1.863215044775    -5.479325148566
H      2.147105426994    -0.244608216582    -4.319678775035
O      1.293667789893    -1.011492493297    -2.139547362723
H      1.042731167052    -1.593849211867    -1.015285988857

