# STO-3G

title

0 1
C      1.904067086776     2.623482042619     1.205169461249
C      2.967584269209     3.034873619032     0.370053602223
C      3.866137718125     4.035076565695     0.784689141425
C      3.714718318769     4.642981684346     2.046422429123
C      2.661912475380     4.238064572096     2.889563358105
C      1.766660996535     3.236389676503     2.470567572437
H     -0.936299974673    -2.364479084885     2.534090920762
H      3.098628647266     2.562952098147    -0.602886862810
H      4.682939599912     4.335408784757     0.131966970891
H      4.409201038657     5.415027875199     2.369327879920
H      2.542054904075     4.696739435786     3.868582184334
H      0.957467265551     2.927392447309     3.131426195403
C      0.908710961337     1.577030079833     0.727135953863
H      1.417312246715     0.851005073075     0.081068006430
H      0.498308782667     1.020608140686     1.579021819569
C     -0.239504640377     2.212021879945    -0.097640042772
H      0.149868174008     2.741734631014    -0.960574174968
C     -1.271984529843     3.031721538806     0.574615884864
O     -2.035275158490     3.725894310840    -0.146690338219
O     -1.471837604930     2.923887655056     1.963632033345
C     -2.532446893208     3.721493942284     2.506822989004
H     -2.587102562743     3.563612302058     3.605217037070
H     -2.348287702541     4.804023397910     2.320596657209
H     -3.511923584644     3.429782737029     2.064024329866
Pd    -1.177927485827     0.599849936038    -0.958130433499
C     -0.625252901373    -3.430608518053     0.147990155607
O     -0.774783250364    -3.556439626128    -1.176058522245
O     -0.865688895733    -4.334672368869     0.973529233143
C     -0.094206877369    -2.050308864282     0.659813027540
H     -0.164550538158    -1.288583084807    -0.120275944850
C      1.344274161026    -2.150939594328     1.121014090302
H      1.679131102890    -1.183441022998     1.545224650061
H      1.423219493873    -2.923173319187     1.915865282468
H      2.001935265879    -2.429119569075     0.271947973260
N     -0.906718642527    -1.647342602726     1.815740763957
C     -1.793818579174    -0.640123867639     1.840432825533
O     -2.003898284183     0.214785488385     0.926270151258
C     -2.594473999676    -0.473233880882     3.068858753946
H     -2.318294263468    -1.226110052016     3.827458838155
H     -2.395804002192     0.540507863037     3.456049890265
H     -3.658994037016    -0.580139231241     2.798627447477
N     -0.307021956548     0.694871775737    -2.818515772896
C      0.258756497458     1.621595843526    -3.649281599948
C      0.780535062586     1.222539226538    -4.864242310957
C      0.725774114029    -0.099639918417    -5.258847527859
C      0.136323850613    -1.010839751913    -4.419785167682
C     -0.393312520183    -0.568445969332    -3.189682896057
H      0.308348573839     2.662485120887    -3.352719818556
H      1.230475967591     1.956801718925    -5.513037420465
H      1.132579690093    -0.410106759663    -6.217885680570
H      0.040247641269    -2.046930666680    -4.676798987312
O     -0.979077552176    -1.423679299937    -2.410458864489
H     -0.792279447210    -2.685898882174    -1.752262594072

