# STO-3G

title

0 1
C     -0.090459272575     3.456105552455    -0.281050749133
C     -0.067253797774     4.536187219817     0.629438427129
C      0.232973668930     5.840510073809     0.193814467702
C      0.516925431909     6.082975973856    -1.164357051519
C      0.494495556440     5.012865473100    -2.081032462139
C      0.193785201931     3.710162821483    -1.642411926270
H     -3.686201071372    -0.196897699519     1.513000641639
H     -0.286594186260     4.354685466086     1.681906432471
H      0.242641378428     6.661855101823     0.907190894985
H      0.747476766198     7.090146821060    -1.503984576328
H      0.705007805617     5.193696730277    -3.132902318422
H      0.169111055488     2.884809409981    -2.352872796559
C     -0.362604085475     2.035571199505     0.189142536215
H     -1.062324305917     2.040369545029     1.029997115379
H     -0.829216475448     1.461120872699    -0.611734545475
C      0.971478444057     1.351038574107     0.579321761013
H      1.683986221520     1.453710918113    -0.231693689661
C      1.622409078973     1.647073084311     1.873167164127
O      0.944708482382     2.102144072357     2.832669410138
O      2.927459092470     1.163556311990     2.068874780626
C      3.496361822907     1.409859394058     3.362906019908
H      4.528738102280     0.999785980830     3.397742011887
H      3.550274687997     2.503158703051     3.569915746706
H      2.897849055068     0.912820182052     4.160429386731
Pd     0.670605904689    -0.696299535009     0.584782327525
C     -1.757495948073    -1.845499079119    -0.417248238472
O     -1.846701101148    -0.673049882916    -1.042158824106
O     -1.019060733955    -2.812385777061    -0.736559011043
C     -2.659954322254    -1.970268325074     0.843552846500
H     -2.160472873198    -2.701601467843     1.489831395879
C     -4.038119532218    -2.494383279904     0.500121124270
H     -4.628106565569    -2.630588195950     1.430246788903
H     -4.558705823810    -1.762925256767    -0.152481159121
H     -3.959736358570    -3.468712464195    -0.025553641733
N     -2.822501381133    -0.719967812117     1.597060181550
C     -1.831645732288    -0.180176556444     2.324718280122
O     -0.617377585766    -0.546711041434     2.292686883416
C     -2.227074774899     0.872408894999     3.280916155511
H     -2.939875845377     0.427611987172     3.995236920634
H     -1.327386634952     1.235946486714     3.809435698635
H     -2.706003288365     1.698256801865     2.727254341887
N      1.792614925104    -0.781017444273    -1.095377361611
C      3.111908942729    -1.130464889444    -0.996843269761
C      3.910252230179    -1.136443849085    -2.119237009801
C      3.392843537583    -0.799750231562    -3.349832034134
C      2.069636942429    -0.457571100133    -3.430187270994
C      1.264574132739    -0.460218394616    -2.267253803611
H      3.529844512027    -1.392064785907    -0.031531333090
H      4.949207888757    -1.408927244765    -2.030389393105
H      4.020348508231    -0.804157458247    -4.237200067669
H      1.609352198572    -0.185762925842    -4.359150072206
O      0.035767218784    -0.108376181419    -2.451465964839
H     -0.973061921893    -0.427776985592    -1.728359231573

