# STO-3G

title

0 1
C      1.935355040268     2.344818603336     0.984885887237
C      2.952262370706     2.659014525307     0.054838425282
C      3.883241466871     3.678886702817     0.322540991368
C      3.811348107289     4.403475935797     1.528797607629
C      2.804842693052     4.096115467546     2.464655035520
C      1.875178734748     3.074853683456     2.192568035250
H     -1.061898153939    -2.267016072137     2.857712528227
H      3.019865348957     2.093420948839    -0.874038665399
H      4.663454334805     3.903485792454    -0.401313278592
H      4.531600542072     5.190867260273     1.738033123186
H      2.746990154539     4.646226515443     3.401199742483
H      1.100668638164     2.841660828819     2.922583976033
C      0.906063919561     1.272356462197     0.657100339200
H      1.375528789846     0.480055281045     0.062989569493
H      0.517242621511     0.821899313414     1.578177230041
C     -0.237214732857     1.871988137195    -0.190402302697
H      0.157124054796     2.274026975077    -1.117731952783
C     -1.213452444592     2.803065247347     0.411897342140
O     -2.026228927063     3.371541143587    -0.363975710176
O     -1.399173256738     2.822012249972     1.806284379711
C     -2.439317392754     3.683662755949     2.287539047636
H     -2.478340865632     3.629565160395     3.396630955239
H     -2.242333847483     4.741056901366     1.998583778103
H     -3.430021971156     3.367324759479     1.888838232963
Pd    -1.438358827828     0.340983348977    -0.904333098481
C     -0.658239887880    -3.098578352809     0.132758794130
O     -0.282644826581    -3.027202288019    -1.153947908952
O     -1.380767612472    -3.990332972265     0.612541020859
C     -0.103325162740    -1.934724425516     1.015296721514
H      0.029231235126    -1.064148910800     0.374244225232
C      1.233865237240    -2.278311069538     1.635209424255
H      1.588785896991    -1.431200466418     2.258164197491
H      1.124893218621    -3.174118991499     2.281797031941
H      1.983437467457    -2.484039705255     0.842724538684
N     -1.033053939052    -1.600097290900     2.096539515692
C     -2.019920040187    -0.694116893395     1.994550936311
O     -2.261160815006     0.051968730800     0.997485938300
C     -2.902160882287    -0.511195468351     3.163505755899
H     -2.591138305702    -1.160902678303     3.999812891225
H     -2.832155876559     0.547184105303     3.466107926756
H     -3.932560216989    -0.757607742729     2.854663176874
N     -0.540875118749     0.495794083858    -2.700340528683
C     -0.959347872476     1.366620805414    -3.669168430912
C     -0.235593020884     1.497923042782    -4.833808261547
C      0.906752619073     0.756721042749    -5.040921645525
C      1.308699525463    -0.113968751911    -4.062594559874
C      0.553883931904    -0.238991337336    -2.873187705178
H     -1.854245583522     1.958555933331    -3.513717357441
H     -0.570230667499     2.189983998163    -5.589793555298
H      1.477206764823     0.860680250235    -5.960294101572
H      2.188744417843    -0.716953513655    -4.167007151302
O      1.001033333731    -1.072312921041    -1.998931861841
H      0.272894634100    -2.183876567448    -1.461032354146

