# STO-3G

title

0 1
C     -0.657212038431     3.422066725212     0.266880020499
C     -0.359816258935     4.527918254607     1.094359675940
C     -0.275955550821     5.825749791161     0.555884374859
C     -0.486463608417     6.032380781340    -0.821384286671
C     -0.783099334931     4.934257765644    -1.653144108979
C     -0.865690494180     3.637304279885    -1.114910634639
H     -3.889171000819    -0.478567322678     0.532040019093
H     -0.201735516418     4.373751731755     2.161420492473
H     -0.053407009830     6.669801662569     1.205274106184
H     -0.424852311925     7.034506480841    -1.239793035698
H     -0.953247058092     5.087100521521    -2.716462553153
H     -1.098891727085     2.794333055304    -1.763031365007
C     -0.705947712009     2.012167019227     0.841945633390
H     -0.917858631435     2.035080037681     1.914817918519
H     -1.506502345049     1.450879154795     0.355120772113
C      0.633164625272     1.298687906148     0.568261741821
H      0.766669019827     1.132530418973    -0.496975396230
C      1.857147770302     1.854715877739     1.172854241487
O      2.005848671789     1.705144871409     2.414690788758
O      2.965880232082     2.086808044233     0.342721834456
C      4.145256853937     2.576738648693     0.994497092099
H      4.939559477231     2.743933786386     0.235182628638
H      3.941415948402     3.546907293342     1.502029700455
H      4.525799444089     1.839746903769     1.736867311708
Pd     0.554252553161    -0.622780792439     1.371664196262
C     -2.276522157253    -0.154370048310    -1.469851034128
O     -1.156165382491     0.130599005507    -2.139756798335
O     -3.372473683459     0.414384642070    -1.656858530508
C     -2.147494014633    -1.224683463606    -0.338572825658
H     -1.099106153037    -1.335579849306    -0.042354609397
C     -2.684308004922    -2.573114599811    -0.760429339997
H     -2.590483243570    -3.291342861705     0.079952069353
H     -3.757948737004    -2.475786349886    -1.027772791456
H     -2.117663504435    -2.954584404469    -1.635120390071
N     -2.947545272105    -0.756502555226     0.798896057815
C     -2.488775472828    -0.439618666120     2.016961241113
O     -1.284366471904    -0.476317468521     2.416363095191
C     -3.507231312643     0.010541555824     2.982227514827
H     -4.252084023018    -0.796343850412     3.090856812937
H     -3.023163142597     0.224049793323     3.951368698114
H     -3.983679722139     0.923229795816     2.581355898814
N      2.181629721687    -1.032473243942     0.259377444073
C      3.419350968299    -1.149259862393     0.831501185485
C      4.500589032046    -1.525350427181     0.066307740949
C      4.354965054352    -1.779889710669    -1.278642179779
C      3.111935710592    -1.651486699970    -1.838576389501
C      2.010736293369    -1.255534424387    -1.042661662677
H      3.545274224000    -0.950945333782     1.889749601167
H      5.470606696845    -1.615815069648     0.527085739529
H      5.208670043733    -2.073049990215    -1.884080352287
H      2.942086163696    -1.824445340758    -2.882674190277
O      0.895525889903    -1.137461796744    -1.659337208060
H     -0.287294356610    -0.412722738558    -1.892875702552

