# STO-3G

title

0 1
C      0.626501687803     3.013918333443    -1.126995351895
C      0.720385203100     4.308447361926    -0.559335316617
C      1.711835054076     5.214967639143    -0.976439333507
C      2.624603691908     4.854168333900    -1.986935501944
C      2.520613944571     3.585472554529    -2.586557882947
C      1.528348634855     2.682033066466    -2.161588233254
H     -3.797629589403    -0.703090695921     1.960025674330
H      0.002197778029     4.625783209490     0.196279486333
H      1.763148978042     6.204328248961    -0.526819444456
H      3.388615597307     5.555875550090    -2.313322969684
H      3.199691458496     3.300801561506    -3.387478101131
H      1.442141406094     1.714295707848    -2.651551915877
C     -0.451063066214     2.035903551289    -0.690381279095
H     -1.437939069218     2.509445020215    -0.823640957123
H     -0.475552910164     1.174379872480    -1.360863268423
C     -0.432318289543     1.526267719547     0.772365260942
H     -1.458613246497     1.276180941912     1.045117311319
C      0.206945525116     2.333394177101     1.830049990194
O     -0.522072098666     2.845130766198     2.719690296380
O      1.574239603749     2.107648167834     2.062294810739
C      2.152214555677     2.856109188793     3.140604488343
H      3.235309205756     2.619443008939     3.216048908605
H      2.049158823325     3.950616056336     2.960938693389
H      1.671044236391     2.592271792017     4.110275068495
Pd     0.528268283699    -0.278025569593     1.144389159600
C     -3.080258033214    -0.725592514336    -0.479397899778
O     -2.359310574481    -0.561496961292    -1.589027527755
O     -4.220347309652    -0.247489791987    -0.296782686534
C     -2.404407988733    -1.545279872339     0.664955578525
H     -1.316018338992    -1.521759947537     0.554077107261
C     -2.865584840371    -2.984833050490     0.686711516128
H     -2.372718516063    -3.521507745680     1.523423714261
H     -3.965039957861    -3.017571336708     0.841030847274
H     -2.610320608672    -3.484159772089    -0.270983301587
N     -2.804256552814    -0.926892227394     1.933271102393
C     -1.985080275344    -0.463304914442     2.884565948333
O     -0.713094634739    -0.435977833474     2.843358452619
C     -2.641013380899     0.074344077173     4.088090303369
H     -3.273223774835     0.925087973013     3.778680145489
H     -3.258466653020    -0.728211624633     4.525332153330
H     -1.873799703562     0.414646813897     4.807076631743
N      1.667903721175    -0.312366155684    -0.509970700679
C      2.947388457878     0.170747609417    -0.497165508058
C      3.773411053296    -0.045258120104    -1.579114777040
C      3.319118025959    -0.725026912128    -2.686753169304
C      2.023972094685    -1.172148521389    -2.695590038533
C      1.185474945246    -0.938530423764    -1.579312434497
H      3.315090476477     0.705392959986     0.370891475377
H      4.781461728854     0.335019577810    -1.557232231399
H      3.969407490490    -0.890309028207    -3.541704176576
H      1.608810560229    -1.686628744360    -3.539203682521
O     -0.024628582784    -1.348257082626    -1.693071736656
H     -1.366907347755    -0.918219602151    -1.592548407587

