# STO-3G

title

0 1
C      2.121436570424     2.422507332437     0.951689673397
C      3.184837953644     2.543887581972     0.028509458654
C      4.171672082548     3.532802098067     0.192887357523
C      4.110467022274     4.419939620620     1.285750000039
C      3.058628967505     4.304639552732     2.215115782159
C      2.073416995144     3.313636921105     2.047116328910
H     -1.402652852640    -3.169778531438     2.137613309094
H      3.247874613786     1.850510423014    -0.809073573586
H      4.988368243556     3.605809983726    -0.522000023146
H      4.875059129625     5.182573044517     1.415222510278
H      3.009605643433     4.978206023064     3.067971827281
H      1.266619899043     3.227046729655     2.774230649150
C      1.031466586839     1.381144216880     0.735105942449
H      1.464530275697     0.492784081627     0.266687337063
H      0.580378326014     1.078240003932     1.684421726794
C     -0.047466301231     1.942615814871    -0.210171002510
H      0.366987255726     2.153299836718    -1.191550571874
C     -0.954096772235     3.023662164620     0.227565740000
O     -1.757764444604     3.479679674277    -0.628504557245
O     -1.161181210283     3.245813118386     1.599252817484
C     -2.109548260209     4.267512786245     1.934958369999
H     -2.169838772866     4.361640880693     3.040702747465
H     -1.794405527652     5.251394951359     1.519318983864
H     -3.123342788557     4.008561622929     1.554353245861
Pd    -1.363743000331     0.411994155143    -0.629717034924
C      1.052070474240    -2.006568209236     0.786447678205
O      0.185662896765    -1.904116157119    -0.223134422607
O      2.297976849470    -2.041859850806     0.706188443774
C      0.337145379282    -1.953445624175     2.180305587931
H      0.485859332807    -0.929994679410     2.543186607421
C      0.933071226065    -2.912305018197     3.187822993033
H      0.407029041163    -2.806853073033     4.159210581368
H      0.815974346185    -3.953159477384     2.823935287330
H      2.011452501073    -2.693806473090     3.334578581568
N     -1.105367838984    -2.202881169343     2.103954692607
C     -1.982765207653    -1.266628085298     1.725388438322
O     -1.671725361558    -0.060836401303     1.457497021860
C     -3.407399994320    -1.650213715533     1.626345718981
H     -3.553728090882    -2.696669303830     1.946852208120
H     -3.976582212779    -0.978173709083     2.290607443898
H     -3.729789140101    -1.526613164612     0.579333299772
N     -0.918258249641     0.587645305144    -2.592887734739
C     -1.548971671689     1.513716416708    -3.379273726354
C     -1.191203286502     1.652340849354    -4.702167431420
C     -0.200171140518     0.868380214124    -5.248534537455
C      0.420950585186    -0.052110149181    -4.447526454108
C      0.043918471275    -0.181672108184    -3.090464675548
H     -2.331010533989     2.136338484220    -2.960400806774
H     -1.691671731810     2.387337411480    -5.311492646742
H      0.084887590021     0.979298731323    -6.291467943026
H      1.204106010787    -0.686179822901    -4.813760311896
O      0.703587554666    -1.062926441256    -2.423063662412
H      0.491171030924    -1.531564695449    -1.244814930888

