# STO-3G

title

0 1
C     -0.912458387517     3.397939835562     1.033490745030
C     -1.836640754034     4.086457906922     1.858620019452
C     -2.794518613238     4.958088608332     1.313691843181
C     -2.855409153572     5.155190752899    -0.081420557054
C     -1.944112007749     4.479096522577    -0.911630413578
C     -0.976473099590     3.614342172704    -0.359607562748
H     -3.246383902744     0.558277876111    -0.914311603482
H     -1.799765020957     3.935996251228     2.937172851975
H     -3.488840294669     5.478778045239     1.969697339843
H     -3.596976612228     5.824933212527    -0.510512555355
H     -1.979687957931     4.614091158567    -1.989661647486
H     -0.284028582440     3.123032335989    -1.036841212028
C      0.105718308381     2.484468510251     1.718935007070
H      0.794630766103     3.111447343237     2.302077081604
H     -0.439485151729     1.896534701187     2.465188388200
C      0.899577144318     1.528156326075     0.804222312285
H      0.475725221618     1.426622592611    -0.190449709131
C      2.364053738782     1.697860071250     0.706685498651
O      3.031912376419     1.848156608102     1.765030574619
O      2.990679448101     1.462090551584    -0.527269316824
C      4.423258972356     1.525085034571    -0.529286711171
H      4.796589555063     1.326594608667    -1.557228163139
H      4.775958684096     2.534732869892    -0.219245070263
H      4.854771352850     0.754747794137     0.149164607399
Pd     0.459940131160    -0.396001392719     1.488802604758
C     -1.033281755404     0.302751040225    -2.186337629952
O      0.288775555050     0.293802770002    -2.383487687671
O     -1.826573918235     1.067961878443    -2.772899320669
C     -1.570457829145    -0.668094655343    -1.085692421758
H     -0.755118452253    -0.991217812832    -0.432055988599
C     -2.239136755672    -1.888839808843    -1.675076037279
H     -2.623976162752    -2.533361620675    -0.858247049871
H     -3.092783292523    -1.570557166196    -2.310300949978
H     -1.514266877830    -2.464209587479    -2.287472813780
N     -2.579185893118     0.071093647443    -0.319870200612
C     -2.531307371085     0.362491866778     0.983929711413
O     -1.602779397867     0.066102551468     1.802279011822
C     -3.689401219719     1.105013448148     1.510871249116
H     -4.593324472830     0.499832097935     1.329875689000
H     -3.546793303562     1.289281053431     2.588775749252
H     -3.753242901892     2.064895361918     0.965623930211
N      2.268374837518    -1.156243052618     1.020127942853
C      3.257642970887    -1.320321674523     1.951908690605
C      4.428951223680    -1.958530780345     1.607861384005
C      4.622784491746    -2.434878097770     0.330929355321
C      3.631812310362    -2.247239154656    -0.595133924141
C      2.438312035091    -1.577620484313    -0.233400413505
H      3.113882794972    -0.954812941809     2.962222632547
H      5.199537122649    -2.085415544241     2.351048074086
H      5.545899525490    -2.941320550227     0.061304242860
H      3.732102189367    -2.582287668657    -1.608271618371
O      1.574480467793    -1.424571564237    -1.167097991107
H      0.848404229760    -0.414964811303    -1.838892566387

