# STO-3G

title

0 1
C      0.440845830570     3.016587308476     2.340325759246
C      1.194787776707     2.434164673844     3.384349975070
C      2.196482546622     3.164902219165     4.048669713234
C      2.463787664581     4.497043069391     3.676590086657
C      1.719299069303     5.089633204314     2.638605709699
C      0.717606872650     4.353892278516     1.977966018737
H      1.293388772224    -2.846321172023     2.142466319359
H      0.991104658543     1.407348664472     3.684494639241
H      2.763496222477     2.702268517934     4.853666502820
H      3.236799011463     5.064497067898     4.189482177943
H      1.915862591958     6.119253924733     2.348074180864
H      0.145998693221     4.821376749742     1.177049093223
C     -0.609781516874     2.202967832154     1.594717589003
H     -1.130574901567     1.530962351237     2.283415874154
H     -1.358224011665     2.863931270276     1.146418000091
C      0.052378269074     1.330660570152     0.506352722071
H      0.732051563753     0.599553332704     0.949582240518
C      0.723133844492     1.977439357175    -0.640456855297
O      1.566775273039     1.307256957160    -1.290510318452
O      0.254097338897     3.218673702328    -1.108453103841
C      0.897652711067     3.722909000369    -2.286895258510
H      0.450693895614     4.702127115204    -2.561370665617
H      1.986696788141     3.873589947125    -2.108682190979
H      0.756083124573     3.025247657031    -3.143961692622
Pd    -1.436252151995     0.023435302753    -0.099164121476
C     -0.460463805504    -3.226196135744    -0.302197547998
O     -1.103025132466    -2.814485288512    -1.396071450140
O     -0.765055765736    -4.234025056364     0.364104894097
C      0.729911691164    -2.302830770844     0.164664498881
H      0.607834861461    -1.311418644400    -0.281690269290
C      2.076171207968    -2.849250295188    -0.255386553367
H      2.880693320313    -2.180269314405     0.115034402740
H      2.220326913295    -3.862226027756     0.175270949989
H      2.135170084135    -2.907637695079    -1.362231459903
N      0.701705262657    -2.202715827580     1.634686657342
C     -0.292466519108    -1.597422254642     2.302550709197
O     -1.193626098098    -0.862898855165     1.792502002984
C     -0.351253004641    -1.773201047664     3.767461583447
H      0.496031835901    -2.380646461665     4.129782001126
H     -0.322077196015    -0.773531537540     4.230325341466
H     -1.302793022777    -2.279155369450     4.007318037649
N     -1.676305868987     0.832150149276    -1.929536425792
C     -2.340221262779     2.009041476963    -2.146539666738
C     -2.422530020351     2.531201382940    -3.419049267021
C     -1.839473322635     1.882906158080    -4.484586012844
C     -1.178928903925     0.706553079919    -4.252282797043
C     -1.112402435848     0.176977338114    -2.942414303904
H     -2.794195060299     2.533679171765    -1.313951198586
H     -2.945795969545     3.460003453847    -3.577168581168
H     -1.902364220323     2.295276391697    -5.488186523090
H     -0.708916155972     0.153189181224    -5.041025172517
O     -0.497667348341    -0.944213465645    -2.822616482512
H     -0.765619877163    -1.946796800192    -1.962550888796

