# STO-3G

title

0 1
C     -0.678286146482     3.847880683738    -0.337886933168
C     -1.336046466993     4.664965095829     0.608455113896
C     -1.524912578424     6.038609852366     0.368703344440
C     -1.055866735048     6.617946168053    -0.826254478127
C     -0.402098985429     5.811670943670    -1.778559828240
C     -0.215302233542     4.438492722887    -1.534838935677
H     -2.791062094935    -0.617266818810     0.863209613669
H     -1.706498610360     4.223878087318     1.534063460088
H     -2.038695328183     6.651095927111     1.106469591082
H     -1.203597561954     7.678680315825    -1.015211542542
H     -0.046724131684     6.248907524517    -2.708938826644
H      0.279209049295     3.818613205354    -2.280870608282
C     -0.427658500416     2.370241318716    -0.061417251374
H     -1.248443424310     1.953712487707     0.535778532988
H     -0.404515311192     1.826771474631    -1.008347945856
C      0.924057210748     2.162102665672     0.649865823810
H      1.744502128286     2.531271721193     0.027501067317
C      1.095683141417     2.597320903076     2.055571428421
O      0.101534040592     2.651084868616     2.827862749943
O      2.407415639138     2.701007292660     2.547602424387
C      2.527618704453     3.049391075980     3.934238237458
H      3.602944340359     3.115592675968     4.207089953853
H      2.056438906504     4.038477796335     4.136111672038
H      2.052317774713     2.275536286135     4.579563049489
Pd     1.516159669143     0.202797390725     0.524641337806
C     -1.767074306546    -0.484251316589    -1.502181347571
O     -0.888742776793    -0.003552229045    -2.402705058848
O     -2.996393077942    -0.296688300820    -1.577382120690
C     -1.185556800929    -1.289834018265    -0.296952261841
H     -0.102748325712    -1.189942514407    -0.230966861458
C     -1.525370866988    -2.760931627256    -0.384179346104
H     -1.103667854808    -3.292660750326     0.493857186559
H     -2.629359943068    -2.884524333718    -0.378470398397
H     -1.106083046338    -3.198732481306    -1.313488406717
N     -1.787027800015    -0.764355986369     0.934264861694
C     -1.116851232893    -0.330538074644     2.016813913934
O      0.145027406182    -0.273161391983     2.157686680022
C     -1.955407043007     0.105289443067     3.147730500667
H     -2.582552482219    -0.746685572424     3.458926404141
H     -1.301255003674     0.436994189076     3.973471787673
H     -2.581099881784     0.949156267382     2.806812833011
N      2.356828552411    -1.679243731426    -0.406211381632
C      2.881951761110    -2.928523390232    -0.225534133325
C      3.117936202023    -3.735734590873    -1.323506820304
C      2.839724561180    -3.291152133746    -2.602074876854
C      2.320376329446    -2.030178711343    -2.758128781663
C      2.103148245490    -1.240672913146    -1.610919969336
H      3.097699387457    -3.285968055708     0.774756619376
H      3.526958211533    -4.722327154863    -1.175579249547
H      3.028218675742    -3.925643597270    -3.464406922985
H      2.089563731951    -1.619204084864    -3.721209445523
O      1.580360990579    -0.032633544837    -1.761567177080
H      0.127208192613    -0.044229771698    -2.182830465674

