# STO-3G

title

0 1
C     -0.659253351271     3.411983511070     0.434350235152
C     -0.440952699764     4.534681831569     1.264720470409
C     -0.431265255810     5.834707499386     0.725983556193
C     -0.637561275770     6.027524383623    -0.654237604827
C     -0.858169028817     4.913306333032    -1.487975076184
C     -0.866632455277     3.613282978007    -0.949696794560
H     -0.651539268432    -1.469344068487     0.412146448061
H     -0.288981123915     4.390856584846     2.334275389249
H     -0.270527689429     6.691263574036     1.377247357764
H     -0.633223054133     7.031586342268    -1.072645393667
H     -1.028620829271     5.056003892884    -2.552773811724
H     -1.047409887254     2.754271477672    -1.593239104712
C     -0.621487730138     2.001074639216     1.008050083349
H     -0.901788292035     1.992820260018     2.064380788079
H     -1.323141952615     1.366267257437     0.463180022032
C      0.791213912936     1.418048602191     0.810926178390
H      0.973096183891     1.205969951852    -0.238325138053
C      1.939488683985     2.108896769226     1.425285146947
O      2.045036218585     2.045150765643     2.678732088824
O      3.066192260235     2.371428075827     0.628463058849
C      4.164147277023     3.012740831421     1.291398192686
H      4.980341651084     3.191224924164     0.558394147523
H      3.851981153686     3.997228684751     1.708473627663
H      4.565514490809     2.372540813466     2.109105493382
Pd     0.901731778338    -0.425630449339     1.765141122528
C     -2.440382294017    -0.354045438117    -1.563399637474
O     -1.218757164914     0.216275516586    -1.779608710461
O     -3.496514938593     0.169924222215    -1.941095507707
C     -2.349124435900    -1.686282391147    -0.743771161246
H     -1.661624029096    -2.352420042357    -1.280004074810
C     -3.668520909363    -2.406950120170    -0.571832406114
H     -3.555158782479    -3.228940007218     0.164754602115
H     -4.460962282842    -1.707265975942    -0.243837082489
H     -3.981433302517    -2.840198791449    -1.544405284077
N     -1.678622069822    -1.428996549484     0.548908533813
C     -2.009877693207    -0.847244377116     1.709586104985
O     -1.125990955783    -0.462489273660     2.554707728821
C     -3.421767817400    -0.606548327482     2.042945247257
H     -3.931024165272    -1.580920508647     2.115276921193
H     -3.470551583525    -0.091027210103     3.018944124139
H     -3.863130254074     0.038558283607     1.262914241891
N      2.406489251531    -0.844486889583     0.459632800046
C      3.745520686191    -0.795989467101     0.734090941299
C      4.660941674250    -1.141452301965    -0.236585587814
C      4.243300566953    -1.530678190256    -1.490095935019
C      2.898943151907    -1.569996344976    -1.750363051376
C      1.973894034263    -1.212070586226    -0.741396182310
H      4.083926984055    -0.486546959058     1.716182424893
H      5.713636425515    -1.099020958567    -0.010957587368
H      4.964951601983    -1.799429222145    -2.256968491100
H      2.514388430406    -1.861252431349    -2.706673003750
O      0.724664011070    -1.258135353364    -1.064228351509
H     -0.399130998018    -0.349922333183    -1.520516139949

