# STO-3G

title

0 1
C      2.450147648696     2.693933694286     0.584269479597
C      2.858757980769     3.974546377761     0.996620013181
C      3.718337820215     4.718054341427     0.157507383369
C      4.161050447416     4.161094935341    -1.057876300268
C      3.743081805343     2.869844328224    -1.441576608636
C      2.878386329343     2.115925239534    -0.618575509309
H     -1.390168271036    -1.747822566039     2.797493542249
H      2.525631912985     4.402077496341     1.946057320871
H      4.040028900595     5.711611100124     0.461216813533
H      4.832266204575     4.728629607528    -1.698401041652
H      4.091285339445     2.442409633841    -2.379316092025
H      2.534590234564     1.125696715707    -0.901547071835
C     -2.311517741768    -0.119152786427    -0.252154850846
H     -3.336390223707    -0.048107290379     0.106547096192
H     -2.019085382506    -1.052762114154    -0.727476211975
C     -1.413309792995     0.889813438944    -0.159210111922
H     -0.417210308897     0.750190566188    -0.557568839310
C     -1.676950181017     2.197174415707     0.458710319869
O     -0.692696816430     2.946632419061     0.711963406263
O     -2.960708777136     2.491173830933     0.956432451747
C     -3.100983629604     3.756216136910     1.617796722179
H     -4.152008951000     3.879561649808     1.957180006112
H     -2.437760001397     3.811418623867     2.511068162619
H     -2.859580911669     4.593654620692     0.924456156441
Pd     1.147176967782     1.892537271929     1.814599022118
C      1.025474890911    -1.058066842750     1.294380100445
O      0.650397367955    -1.952827038608     0.480011701938
O      1.624223863195     0.052980100398     0.935775474147
C      0.694808603350    -1.244147964551     2.807272003389
H      1.254705765063    -0.505692661352     3.388877824816
C      1.019408452477    -2.630406816147     3.317407050013
H      0.755870995555    -2.702778205440     4.392709101692
H      0.428783451410    -3.381826480297     2.752331112693
H      2.100561564153    -2.842075512653     3.188151800127
N     -0.739314994342    -1.002464373478     3.020189968238
C     -1.202714380681     0.237108128867     3.240269517764
O     -0.494876474449     1.286045942438     3.206642898729
C     -2.637540811061     0.356962210433     3.547982574085
H     -2.883782520718     1.418596063573     3.720112850326
H     -3.201872084756    -0.030481481263     2.683783638616
H     -2.847087893769    -0.244180055116     4.449639631115
N      0.673609265495     0.185855237573    -2.541538654458
C      0.814227064908     1.166820085531    -3.485859763928
C      0.371791723917     0.952524728684    -4.779422666723
C     -0.213518697344    -0.247370514810    -5.127459080856
C     -0.343427014676    -1.211194067028    -4.161856599165
C      0.130493163782    -0.939183981865    -2.858481193307
H      1.268731426552     2.112685615560    -3.215674422389
H      0.486417637274     1.731417066114    -5.514245974447
H     -0.564720886663    -0.423029277235    -6.140516914028
H     -0.789431853489    -2.165342408524    -4.355427430002
O     -0.069946828572    -1.944719636331    -1.995211831837
H      0.312730632743    -1.824612428349    -1.065068262994

