# STO-3G

title

0 1
C      3.218192992741     0.593553598221     1.089672894332
C      3.929201465346     1.528261264460     0.282054978568
C      4.454752718912     1.134677522715    -0.949521594979
C      4.295547636057    -0.202069848294    -1.403668936127
C      3.627885181425    -1.139286470952    -0.612731286057
C      3.088147978404    -0.756491799606     0.648192905136
H      2.899866727507     0.864503988351     2.090860367076
H      4.074164362657     2.546128200163     0.632455801787
H      4.989663796887     1.852025530501    -1.566399948610
H      4.701095050105    -0.494938426091    -2.368558399590
H      3.514636729119    -2.167581320084    -0.943756150735
H      2.673469488502    -1.521211677676     1.295922784757
C      1.166402694645     3.620695103792     1.460855139121
H      0.781203942706     3.946488698955     2.424968571192
H      2.222856222405     3.375618731205     1.424037866337
C      0.395488855739     3.496327606941     0.354883715375
H      0.835938766560     3.165813736428    -0.574902920332
C     -1.051598335940     3.765476954824     0.303560695649
O     -1.686256401536     3.987423108401     1.371249879429
O     -1.700057880496     3.771120548341    -0.945809503956
C     -3.102863337350     4.070269144246    -0.919153356337
H     -3.505565042121     4.047688482328    -1.954380926389
H     -3.656408699578     3.318477216100    -0.311853511194
H     -3.282091381216     5.086359145438    -0.499559039355
Pd     0.959287116820     0.333657926524     0.267488783983
C     -1.894337722624    -1.402305308251     0.076081428635
O     -0.715495109459    -1.941012375026    -0.317501505267
O     -2.754261152543    -1.953194866939     0.785543613183
C     -2.087961043137     0.066603984181    -0.428938847537
H     -2.464448174986     0.616542441732     0.442899755366
C     -3.139388821306     0.155878965809    -1.519274311127
H     -3.239264460595     1.201744370709    -1.868557779185
H     -2.876346401588    -0.515318301467    -2.358876380257
H     -4.120440319708    -0.169729865920    -1.113682843285
N     -0.812701354050     0.646217103379    -0.812321241978
C     -0.125087481517     0.929918809942    -1.893571896527
O      1.178336676939     1.062103608160    -1.707635573461
C     -0.687302700973     1.161364832543    -3.231844864612
H     -1.118134502757     0.219107799703    -3.601174775116
H     -1.433123731864     1.968747521339    -3.152596974923
H      0.132457378271     1.477539555929    -3.902195140569
N      0.286336538478    -0.240856820179     2.105646304697
C     -0.185549662864     0.714679196583     2.963293883224
C     -0.526331568096     0.377526770657     4.254661932648
C     -0.418546247999    -0.922362088490     4.694283978107
C      0.014180002784    -1.876365437953     3.813497991194
C      0.339621873026    -1.518549794692     2.484047583109
H     -0.293598693554     1.735044180156     2.630609069286
H     -0.893792445492     1.141139616279     4.920651808867
H     -0.693469346219    -1.189652767050     5.711127151931
H      0.075616331342    -2.911763992631     4.082067266898
O      0.650297469667    -2.482297040045     1.691190245858
H     -0.127147676152    -2.371166254236     0.440285273993

