# STO-3G

title

0 1
C      1.253965952983    -2.064869932597     1.074251921801
C     -0.073101535217    -2.198751200982     1.599137411315
C     -0.654712124202    -1.119287644620     2.328714873296
C      0.077622960683     0.047866415250     2.547560375303
C      1.400170049242     0.169814219004     2.041958307827
C      1.981057445400    -0.867173132086     1.307747746370
H      1.745321627272    -2.903845534636     0.592898363135
H     -0.573958159054    -3.162480681206     1.601574094412
H     -1.666756009922    -1.215553141261     2.708914931394
H     -0.367170754602     0.871990925758     3.098077656050
H      1.957759502951     1.086297350932     2.215662040005
H      2.983217127738    -0.756244320106     0.907639725379
C      1.981008088273    -2.043120079448    -2.685059499871
H      1.691774660929    -3.081710387407    -2.836517640866
H      1.311560779117    -1.304697990225    -3.117515658081
C      3.093961086233    -1.671348305398    -2.008962768258
H      3.304414623669    -0.619921019061    -1.879165839523
C      4.043388808968    -2.600256284430    -1.373811180444
O      3.781594108231    -3.833033902663    -1.326121968909
O      5.130596840473    -2.060120479209    -0.664491905352
C      5.971830070790    -3.006174654446     0.010345611195
H      6.795889440679    -2.465783717557     0.524227104660
H      5.395607756449    -3.571171815531     0.778005243899
H      6.423683030544    -3.721561830388    -0.713929480533
Pd    -0.363239617515    -1.986859754333    -0.735916686297
C     -1.136772144362     0.877832101695    -0.607977126333
O     -0.151498898382    -0.005259024810    -0.897557785299
O     -2.206950198248     0.559250994817    -0.052763497126
C     -0.829028750319     2.351632814466    -1.034904153644
H     -1.532095344131     2.944243690624    -0.438420318964
C     -1.171250159915     2.567862214905    -2.498129042193
H     -1.064425518527     3.643848598767    -2.750160980421
H     -0.481321263222     1.979851984858    -3.136589314186
H     -2.217281237168     2.255368766203    -2.700870102518
N      0.502312631683     2.920865791215    -0.816986437090
C      1.655097239117     2.409637242455    -1.046428388130
O      1.991767321403     1.150606917793    -1.466642561832
C      2.801745336572     3.297914863404    -0.838118185878
H      2.679994623098     4.164673419482    -1.510362949277
H      2.778595680601     3.630711175624     0.213480904920
H      3.742817647570     2.762649817730    -1.058539181422
N     -0.580787573655    -3.981314563681    -1.159663492838
C     -0.379657213609    -5.261783810749    -0.736174614884
C     -0.673750771199    -6.312276491099    -1.587359904885
C     -1.163803473673    -6.079853630498    -2.861186017872
C     -1.351347850895    -4.782641095421    -3.270687089267
C     -1.040482809897    -3.741175600332    -2.375085934082
H      0.005268361254    -5.451163351675     0.259024131140
H     -0.513477341191    -7.323576516864    -1.251679436054
H     -1.391224474950    -6.908275193749    -3.526691910483
H     -1.719456590762    -4.524786192261    -4.242438758404
O     -1.169380764695    -2.489894243769    -2.722793737559
H      1.185093077639     0.537272010941    -1.365392773623

