# STO-3G

title

0 1
C      0.683579231462    -1.580436241347    -0.393111057712
C     -0.025876768532    -2.121800511142     0.727266012231
C     -0.344865910073    -3.513220158964     0.752609411300
C      0.068368592205    -4.347752392609    -0.286259141370
C      0.786926005205    -3.811199782070    -1.392999360760
C      1.076420000002    -2.447279801314    -1.455998321828
H      1.039213541312    -0.554786699018    -0.375405415876
H     -0.199249929714    -1.530123022136     1.621804875672
H     -0.878700398514    -3.913684843955     1.610142295628
H     -0.142468757577    -5.413781192538    -0.246021289458
H      1.120389992813    -4.471692262515    -2.190296112877
H      1.626231851166    -2.043116338771    -2.300235834156
C     -0.581169283084     0.964576013328    -2.859343700324
H     -1.121493975583     0.242555184655    -3.469830564404
H     -1.192974302603     1.539194545316    -2.169061482752
C      0.755734539022     1.164856201094    -2.944279402725
H      1.218773162606     1.889180589076    -2.290352562630
C      1.658979606463     0.456055189441    -3.866064990901
O      1.218179672032    -0.476440975900    -4.591586985548
O      3.032112062482     0.754708610109    -3.819761316735
C      3.868936986864    -0.001406733557    -4.706498297196
H      4.924180397735     0.325696021086    -4.585674755378
H      3.813349463689    -1.088830438914    -4.472496270113
H      3.572896519873     0.164227912209    -5.767369471780
Pd    -1.545221817385    -0.779665999764    -0.505694786022
C     -1.106010099389     0.967208108402     1.880364724564
O     -0.878821879626     0.801228518919     0.553526942479
O     -1.508087078492     0.047026922734     2.624598601790
C     -0.832712302783     2.406253101741     2.426895246049
H     -0.807242179419     2.266755070276     3.513481250076
C     -1.992406673531     3.331865422370     2.105981785243
H     -1.836344520768     4.310631151733     2.606559000977
H     -2.052693764509     3.496036085421     1.010881153812
H     -2.947702976966     2.895246213586     2.466075276602
N      0.395299440322     3.111694878817     2.059215821241
C      0.965777230795     3.208283682235     0.917073494848
O      0.645260879479     2.621671628798    -0.278585938455
C      2.138748272614     4.082291528194     0.828617714867
H      1.917714448739     4.875873405184     0.095489282190
H      2.340184219433     4.525789087078     1.821675328134
H      2.999859552095     3.475080320519     0.500782547513
N     -2.562466732645    -1.947569102891    -1.840018063082
C     -2.611316973566    -3.134422647870    -2.508732185402
C     -3.614804752544    -3.346689351542    -3.439086676741
C     -4.563560214546    -2.371535060265    -3.697087849631
C     -4.493858731076    -1.183405681961    -3.011545466853
C     -3.458564186054    -1.009516398167    -2.073306164405
H     -1.875924366540    -3.903241791684    -2.313959836156
H     -3.651999698358    -4.284168677188    -3.968566548931
H     -5.348023952149    -2.542418602377    -4.429348266792
H     -5.189201234777    -0.382816386953    -3.157747234559
O     -3.327383916353     0.105286287410    -1.400435956149
H     -0.055032467365     1.902386182589    -0.136590847797

