# STO-3G

title

0 1
C     -0.319841261587     0.921011195321    -2.900349473897
C      0.774526335348     1.760584331671    -3.191946934543
C      0.777910884623     2.515965780530    -4.381502001206
C     -0.305809752489     2.430694016250    -5.278526904345
C     -1.395749145847     1.586026048062    -4.987916553565
C     -1.401377010392     0.830686955225    -3.798512111029
H     -0.318971822976     0.334042544053    -1.986852781935
H      1.614665316369     1.821396337189    -2.504388303515
H      1.622369902182     3.163009600023    -4.607297086475
H     -0.299750346388     3.013681020424    -6.196999413896
H     -2.230771633770     1.515575995442    -5.681559541758
H     -2.241711060324     0.175482202422    -3.576202102650
C     -1.661655401311     1.964850551813     0.116576263363
H     -1.653928389794     2.723683622766     0.895347862723
H     -0.954119403924     2.096843612152    -0.695630787063
C     -2.488447481117     0.893801002914     0.149538476453
H     -2.435630372815     0.151417713057    -0.638500074026
C     -3.468067450826     0.631606904956     1.214919788713
O     -4.118518436312    -0.447842402975     1.186735901526
O     -3.698471496318     1.602286153527     2.209388542923
C     -4.554923941662     1.196756804842     3.285463092631
H     -4.660365205553     2.033359991052     4.008255456670
H     -5.568704209198     0.932139701530     2.908011028850
H     -4.118775463307     0.324278376556     3.824230222400
Pd     0.072395004062    -0.388759395709     1.393049883020
C      2.119309432458     1.432077194954     0.463832239593
O      1.550267711762     0.238887431127     0.121109797864
O      2.881558606057     2.055671551676    -0.287918716271
C      1.726814462870     1.974751756963     1.896828936488
H      1.456972206109     3.032963322766     1.766343162166
C      2.898314855864     1.877673308367     2.850368434926
H      2.628841504872     2.323888975200     3.828247438733
H      3.165161777049     0.810991961569     3.001914839289
H      3.774528479085     2.420646469610     2.437468505573
N      0.639642729418     1.174004507258     2.420285631795
C     -0.322691293031     1.204102220238     3.313296886743
O     -1.158178141975     0.192893490512     3.281731427287
C     -0.495276295548     2.317636184415     4.255060917385
H      0.397803248431     2.365696837814     4.898696435135
H     -0.617504227460     3.242549038241     3.668074310630
H     -1.399676885180     2.125350670111     4.860293254747
N     -0.590846787734    -1.990067142447     0.280144479652
C     -1.684076464354    -2.679932986141     0.732913394517
C     -2.165716198569    -3.753257122540     0.011934756751
C     -1.557036655882    -4.139586245747    -1.162109850127
C     -0.464782078468    -3.432268473028    -1.592072420435
C     -0.000748169864    -2.340081481304    -0.830911625007
H     -2.167992494634    -2.380779497880     1.655924037758
H     -3.032802635513    -4.282974945672     0.371732512749
H     -1.936188615728    -4.981762310127    -1.734820356627
H      0.051072452018    -3.675518592720    -2.499789401180
O      1.038582860268    -1.721974867998    -1.349504741832
H      1.385093059712    -0.879905734903    -0.870107259258

