# STO-3G

title

0 1
C     -1.382745860016    -2.502771988755    -0.485965582984
C     -2.426743796304    -2.427312300923     0.474109340574
C     -2.560010527451    -3.440541476299     1.450591583102
C     -1.673180593008    -4.531164940326     1.455608540362
C     -0.624475623456    -4.608301848926     0.505613107706
C     -0.477949070722    -3.599275842575    -0.457332225807
H     -1.386212428658    -1.829569187735    -1.340081175424
H     -3.141671501168    -1.612181227070     0.411120157893
H     -3.364131126742    -3.383837462142     2.179254036319
H     -1.794685875455    -5.325009208048     2.189287851505
H      0.052591416337    -5.459110025173     0.511972460898
H      0.306928473455    -3.664015477021    -1.206698200805
C     -0.905053127681    -0.291069100250    -3.487516721045
H     -1.288001593473     0.041749533247    -2.525788748795
H     -1.580252515170    -0.166247310432    -4.328017522957
C      0.323820484880    -0.838325484240    -3.644755872210
H      0.666954422806    -1.169252889695    -4.613732466524
C      1.285143606593    -1.031988911799    -2.551551006161
O      0.972688385858    -0.672207447476    -1.385662495898
O      2.503172051531    -1.679361664774    -2.817405980618
C      3.386351423240    -1.833613559466    -1.696822461990
H      4.309942394686    -2.357679527083    -2.023713917210
H      3.679874268960    -0.840828756375    -1.284994261033
H      2.909043104857    -2.440673122491    -0.893499757253
Pd    -0.567034643296    -0.370016653908     0.477759880212
C     -2.105070341909     1.756443656541    -0.706872811762
O     -2.131854411584     0.415049835135    -0.516289368613
O     -3.001947261365     2.373780608411    -1.309394596042
C     -0.841540585056     2.471622636313    -0.128744462103
H     -1.202380369193     3.423108233889     0.279615467570
C      0.167613508266     2.785581830543    -1.210790388397
H      1.034221927210     3.320563441130    -0.770286601739
H      0.526661867484     1.847583192823    -1.677892286131
H     -0.294204797274     3.425958063423    -1.991397798195
N     -0.187431292077     1.609949084504     0.887086725099
C     -0.173317230728     1.878226984526     2.239999165132
O     -0.141235849195     0.999415860244     3.134103597434
C     -0.066150283863     3.298639260986     2.654931368872
H      0.728582906801     3.778419905093     2.058278563376
H     -1.044819456737     3.785053814001     2.518700461624
H      0.205617146527     3.330247458614     3.726663843653
N      1.093181352574    -1.062008279213     1.512319009032
C      1.010997203161    -2.176604858631     2.298029875998
C      2.157832720271    -2.716036293940     2.849570417481
C      3.380478952869    -2.113532378057     2.645876987560
C      3.424626187705    -0.967127428114     1.895289697360
C      2.226470633640    -0.448183434729     1.359878406264
H      0.051680329549    -2.640005522670     2.477773243248
H      2.084410807421    -3.601541120299     3.458109403211
H      4.283534828543    -2.524405802446     3.088821980396
H      4.331750251706    -0.420700671526     1.738429495890
O      2.361889957068     0.708253577923     0.723092733706
H      1.434301497498     1.120586216201     0.563086224093

