# STO-3G

title

0 1
C      0.855752559568     0.218483456764     3.001846779352
C      1.932584340350    -0.610269493838     2.582514615277
C      2.023135734843    -1.944575887197     3.056154249302
C      1.057156678446    -2.439458751596     3.943891956740
C     -0.014462684227    -1.613196474598     4.369023915870
C     -0.112156930495    -0.294724571205     3.907932553044
H      0.866330601319     1.269239868501     2.733410473499
H      2.722160732580    -0.184023177509     1.970763030420
H      2.856665475005    -2.568186454488     2.744718810284
H      1.133905067455    -3.456279095277     4.321931481433
H     -0.753954831102    -2.001407219258     5.065490852467
H     -0.921553686815     0.343377758307     4.255576745699
C     -1.299640888072     2.669511165935     1.620730046734
H     -0.420795643239     3.135913749046     1.182224872113
H     -1.105368755979     1.889649684850     2.350589338570
C     -2.576943000654     3.005966458747     1.317617563244
H     -3.394189669617     2.472862702967     1.785512938285
C     -2.974357506736     4.060216890041     0.369637672363
O     -2.098428633235     4.645502831512    -0.321958291505
O     -4.343776415565     4.310342652465     0.176831121525
C     -4.666850199080     5.321012395348    -0.788958462259
H     -5.770921647272     5.432873966199    -0.849995488739
H     -4.233636096447     6.303798036919    -0.493890781703
H     -4.290085017303     5.039240614390    -1.798456770184
Pd     0.348491487875    -0.203640116028     0.621607116838
C      1.552945158428     1.891545044260    -0.921952284814
O      1.624373850575     1.294567156703     0.292790157272
O      2.256720540040     2.868329864136    -1.237227315747
C      0.521362024961     1.245775010122    -1.900788625769
H      1.047666363059     1.174913872715    -2.861927734268
C     -0.699068708071     2.120578969201    -2.090783853831
H     -1.352580204993     1.700094702933    -2.879955265897
H     -1.274303365914     2.166648909343    -1.149808360925
H     -0.397437139522     3.148973880110    -2.383223096717
N      0.084513448167    -0.064673532391    -1.375443933549
C     -0.066055569135    -1.217001758383    -2.069198512266
O     -0.186370334470    -2.362107388336    -1.546039485377
C     -0.119189806967    -1.140729305124    -3.551723550153
H     -0.353327998547    -2.148297234598    -3.941529406520
H     -0.921522126714    -0.443602233016    -3.838877015457
H      0.865847646754    -0.827884379607    -3.934983228121
N     -1.079941547448    -1.645067369286     1.004857183458
C     -0.707356808124    -2.959223237612     1.108027651755
C     -1.650056573956    -3.917922931098     1.431038146428
C     -2.970172131044    -3.565760901784     1.609890729943
C     -3.315728877348    -2.245663217945     1.472308782357
C     -2.316182617376    -1.306489307687     1.153441733702
H      0.329109029489    -3.241071450629     0.964099692183
H     -1.346858160821    -4.947724887625     1.515245713160
H     -3.718822963989    -4.316535519788     1.847456340033
H     -4.325015823101    -1.905557440261     1.583981309353
O     -2.759798208801    -0.051558537977     1.031363901566
H     -2.046765746332     0.581957426748     0.767083236752

