# STO-3G

title

0 1
C     -1.674307810438    -2.860543960477     0.228308023939
C     -3.043772928093    -2.908525341044     0.558124124830
C     -3.575762849050    -4.038189259628     1.210572378181
C     -2.736328323207    -5.122157745215     1.535995223278
C     -1.367424146786    -5.075236150126     1.204499991822
C     -0.834686198640    -3.946599537875     0.550360011946
H     -1.259619093676    -1.993402322551    -0.275861496826
H     -3.697966847004    -2.076934073167     0.303342570273
H     -4.633564947307    -4.073232395672     1.462242616956
H     -3.145649338287    -5.994602656453     2.040774470918
H     -0.718477600693    -5.912384840261     1.451689242895
H      0.219452629898    -3.912524020476     0.288109716308
C     -2.074241310668     0.577898800314     0.047120326221
H     -2.235083620105    -0.190057960079     0.797887315503
H     -2.381679173049     0.323058093331    -0.965385401163
C     -1.489476080876     1.766609257803     0.326394488976
H     -1.311169076048     2.492766132304    -0.453882566377
C     -1.008538137347     2.166211819056     1.660891371385
O     -1.150331281833     1.387901623581     2.642922813290
O     -0.332995723876     3.392236108129     1.799648502644
C      0.072217035952     3.736900075668     3.132036428273
H      0.588390460349     4.720970251962     3.117325724588
H     -0.812271876571     3.819591369479     3.804030990657
H      0.775575829329     2.977373686727     3.542524330897
Pd     0.588248692992     0.708929080129    -1.714154488177
C      1.875776908668    -1.523548808093    -0.404754078311
O      0.905147108928    -1.274115411149    -1.334082457642
O      2.311241018153    -2.659245086590    -0.172087569731
C      2.387003684285    -0.253206748053     0.385669276835
H      3.485772899264    -0.288201152402     0.368831767545
C      1.910639951946    -0.298199182460     1.822279421877
H      2.291591457342     0.579249331275     2.380323360581
H      0.800639579372    -0.288815999690     1.848173588628
H      2.274509387555    -1.223139493113     2.317004328845
N      1.853805928113     0.937721856781    -0.244360499824
C      2.029376774637     2.236185570450    -0.319374205660
O      1.279183346079     2.857476559037    -1.202639416360
C      2.984683030631     2.961632993533     0.527135710171
H      2.954598319261     4.028421987563     0.242826079808
H      2.667046439028     2.838857123027     1.574315396481
H      3.990168985327     2.539612627938     0.360017368205
N     -0.770095002874     0.495345396575    -3.250125819758
C     -1.205487767463     1.623031955820    -3.891895076596
C     -2.160683283087     1.524679842776    -4.882574394976
C     -2.675503238242     0.296953563220    -5.239748203303
C     -2.214659501897    -0.816577577738    -4.587214539980
C     -1.235059496717    -0.678798599907    -3.582522364192
H     -0.806955504791     2.591675520922    -3.611457096494
H     -2.502409519948     2.417597092909    -5.380410836059
H     -3.427150372158     0.213724559050    -6.020377205087
H     -2.569797814312    -1.801474219238    -4.819043706469
O     -0.868282682827    -1.812373182735    -3.025731988138
H     -0.125543881796    -1.782694565707    -2.314945798595

