# STO-3G

title

0 1
C     -0.345251330872     2.746408975209    -1.883858303179
C      0.733746114472     3.179413156896    -2.681382440072
C      0.714871268509     2.970241988099    -4.073881778361
C     -0.388162804883     2.330598202126    -4.675609414384
C     -1.472972610912     1.905865971117    -3.883250240013
C     -1.451270356598     2.115343149036    -2.489929136821
H     -0.338377872105     2.910289069647    -0.809011840827
H      1.583612791743     3.676038124060    -2.215871017818
H      1.549838379055     3.307061527014    -4.684492689207
H     -0.403554440306     2.170611546073    -5.751248770014
H     -2.326441359708     1.416985050437    -4.346840361866
H     -2.289724740050     1.793673097009    -1.877204513921
C      2.295804640923    -0.118412394806     2.395452697844
H      3.065233864177     0.598708657716     2.670935427706
H      2.508048263985    -0.747058026702     1.535173252577
C      1.105486229337    -0.207887835371     3.028859090891
H      0.359580967933    -0.906738027078     2.674174328440
C      0.697959637287     0.625576054144     4.169955623494
O     -0.475544348812     0.506430339134     4.615683112759
O      1.597714584750     1.558033991655     4.718499036535
C      1.094136130034     2.356502086472     5.798140414796
H      1.890848470697     3.049323925003     6.145019089791
H      0.224287290974     2.966930522405     5.465373408378
H      0.792262589944     1.715550105325     6.657324070265
Pd     0.000779393135     0.086765319715    -0.126847976445
C     -1.596625409281    -2.272740529006     0.055112143342
O     -0.425804352607    -1.854146390221    -0.506003147255
O     -1.970473053895    -3.456766456337     0.010755156272
C     -2.483211047234    -1.162746875950     0.765360807121
H     -2.758180149421    -1.546884443620     1.757866726421
C     -3.741439575708    -0.885489461097    -0.028689636899
H     -4.366855644149    -0.138504000758     0.498940659459
H     -3.468506619798    -0.490331022784    -1.028862381419
H     -4.326830095820    -1.820836836436    -0.152372308190
N     -1.698807168271     0.056014830589     0.829571065746
C     -1.621375948728     1.174966869036     1.506691942357
O     -0.566273191461     1.933433144097     1.284790254383
C     -2.652649562004     1.580580425117     2.469762452897
H     -3.603911336801     1.705167872222     1.928542257597
H     -2.729966739471     0.791790073402     3.237798658968
H     -2.344641642092     2.532859701016     2.937759458270
N      1.870590978349     0.292341850469    -0.950474450002
C      2.339209312296    -0.551124576462    -1.920149994769
C      3.585202808364    -0.328172249322    -2.473310758771
C      4.354684872422     0.739173954838    -2.059412471904
C      3.852673952923     1.566962623068    -1.087254999720
C      2.576318632547     1.304438354903    -0.553342144414
H      1.736042166144    -1.390671812895    -2.246828380362
H      3.951298153778    -0.995360485019    -3.236425545821
H      5.334569978262     0.919698335366    -2.493279655648
H      4.396243829477     2.415529043603    -0.722854363635
O      2.182189700027     2.174571307292     0.374941770187
H      1.285166456953     2.035112596182     0.788459554613

