# STO-3G

title

0 1
C     -0.049260090817     2.878212889782    -1.478075807150
C      1.129527391376     3.285210730388    -2.162083003677
C      1.394708253602     2.814793849912    -3.452291826028
C      0.497270389653     1.914572464927    -4.088062701451
C     -0.666663606140     1.502033189125    -3.430143847582
C     -0.956399725463     1.990185387276    -2.123447895804
H     -0.363199514648     3.322792803743    -0.538499836698
H      1.813209852279     3.983661371180    -1.685068918616
H      2.287038918279     3.147258705034    -3.978548202454
H      0.707235148871     1.570139740270    -5.098114456933
H     -1.377855202189     0.847216259570    -3.927290702217
H     -1.933386951680     1.827130988703    -1.680559999341
C      0.767988044867     2.912790955182     2.104995381141
H     -0.296312459336     2.825560992497     1.921928772440
H      1.279688688132     3.663468558331     1.501224519003
C      1.455408586549     2.190539201092     3.024521580762
H      2.521619028896     2.340482655504     3.143883933553
C      0.869434610970     1.184782422375     3.926924556657
O      1.608406038041     0.667106537403     4.805443753593
O     -0.511384279869     0.902335655164     3.876005230457
C     -0.971491429507    -0.083533684287     4.813241086121
H     -2.062182726613    -0.243325831612     4.686011854345
H     -0.456356384181    -1.058391340447     4.647083980183
H     -0.789467148312     0.250735692343     5.859968526982
Pd     0.066644955427     0.665972107239    -0.325729728817
C     -0.560444235680    -1.421986929849     1.521896774877
O      0.513113614387    -0.841385258435     0.927301738531
O     -0.463280977911    -2.405688326709     2.278714492795
C     -1.926043371310    -0.768629100037     1.155670084040
H     -2.544947773378    -0.832176532289     2.059609976139
C     -2.617583972618    -1.531157445620     0.044816713840
H     -3.597828045595    -1.062719283186    -0.178127983446
H     -1.992479776728    -1.503495814498    -0.871103076653
H     -2.779859102188    -2.587083910348     0.347861513453
N     -1.691770365561     0.605404522005     0.677511810904
C     -2.372060477137     1.711818746754     1.019354925491
O     -2.058984647981     2.885879759612     0.635952113978
C     -3.567244876866     1.577589848127     1.887404586582
H     -4.273066799599     0.874718689805     1.415723052781
H     -3.232212973925     1.236467872459     2.880573470209
H     -4.043854902628     2.570346700060     1.988913746644
N      1.943329571557     0.385801834933    -1.166219108255
C      2.033023075207    -0.440125852665    -2.253557905734
C      3.265872751873    -0.712052879516    -2.813715062225
C      4.411554472790    -0.165896191209    -2.275495953627
C      4.290540825010     0.645047682330    -1.177036610732
C      3.011353661841     0.885806312138    -0.637345308859
H      1.134167181734    -0.867548976754    -2.681850745485
H      3.328487103322    -1.359304263379    -3.672502499970
H      5.386103412426    -0.377994426956    -2.706966861285
H      5.140212383499     1.089018539214    -0.698732101502
O      3.011151513817     1.668411054593     0.434948579281
H      2.133097447780     1.756115781722     0.894104162293

