# STO-3G

title

0 1
C     -0.250201495703     2.908605978863    -1.655357360945
C      0.892880522268     3.299548214111    -2.408122921716
C      1.174974051078     2.697311413424    -3.637966035779
C      0.322457274275     1.683080646125    -4.150864433055
C     -0.820259323388     1.300613011899    -3.440287936717
C     -1.122230907632     1.920544121968    -2.195917300321
H     -0.560423372139     3.429536740134    -0.751313063268
H      1.537971129313     4.082305780977    -2.019539153878
H      2.042453201423     3.013949567199    -4.213795772441
H      0.547598678037     1.226007692366    -5.112022533064
H     -1.498808162324     0.555986141600    -3.848374143546
H     -2.075678685664     1.737567666062    -1.712925137307
C      0.670063892791     2.702779366616     2.173363359305
H     -0.356864510510     2.857398315771     2.480493922950
H      1.037042014599     3.394614711411     1.421184270237
C      1.450143352435     1.696620792607     2.629837485611
H      2.460560689381     1.579940725988     2.256495183238
C      1.022446590988     0.664581624905     3.585038127882
O      1.901149352332    -0.068965849883     4.112689128481
O     -0.328442113029     0.590561141889     3.984946704574
C     -0.648587265909    -0.479172699132     4.885818561791
H     -1.733990238018    -0.456810588565     5.118149940500
H     -0.410284273667    -1.466871214947     4.427148328906
H     -0.084827902341    -0.373852087430     5.840298511309
Pd     0.053425780261     0.900337429554    -0.253476669801
C     -0.763078382560    -1.388384040539     1.288698418269
O      0.360224980998    -0.812883554295     0.802862068998
O     -0.760231127621    -2.474048024134     1.903159391350
C     -2.072050581279    -0.594471189683     0.997676698027
H     -2.696455902417    -0.698863915194     1.895101708288
C     -2.817525731196    -1.188092543636    -0.180463850280
H     -3.759954744770    -0.628682795452    -0.349526822537
H     -2.189596642313    -1.111637700153    -1.091976992523
H     -3.057169669990    -2.254589073701     0.014501804914
N     -1.737668230292     0.798554942909     0.659322066320
C     -2.379775126776     1.916229000039     1.039046902351
O     -2.030594296740     3.091157310465     0.696483391850
C     -3.560358129945     1.786744712209     1.928361174482
H     -4.311142231890     1.151043053074     1.432064174018
H     -3.218554442998     1.362268400222     2.887718042038
H     -3.982693929519     2.793359223758     2.104347482450
N      2.002541717215     0.642961020454    -0.930416302530
C      2.203435804476    -0.578748458178    -1.515517291272
C      3.481151295608    -0.976770041209    -1.858997897371
C      4.558964486134    -0.158984789813    -1.603594860681
C      4.329223079357     1.058038153093    -1.011611450814
C      2.995944976008     1.415221443290    -0.683526480602
H      1.358308310848    -1.226363390944    -1.718301709616
H      3.628825876882    -1.941639472483    -2.315330578188
H      5.566283979247    -0.470808333315    -1.867047523864
H      5.137600608242     1.727640954272    -0.807127545122
O      2.776101634096     2.616325760375    -0.105674654795
H      3.560239246588     3.066119158026     0.255290346614

