# STO-3G

title

0 1
C     -1.749942165745     0.397916379447     0.953348568488
C     -1.226883390282     1.669566261455     1.267337441916
C     -2.029797734565     2.608877347735     1.944410696987
C     -3.350460142907     2.279405303358     2.311174810337
C     -3.870363110741     1.006808671375     2.001721729731
C     -3.068902028375     0.066849308528     1.323653208666
H     -1.138671462620    -0.325510610447     0.420651032008
H     -0.204239418778     1.909116632427     0.991458930288
H     -1.628153714035     3.590899343686     2.184558591448
H     -3.969735559387     3.006529031570     2.832515462500
H     -4.890434131949     0.749734305193     2.280412514930
H     -3.476975661814    -0.912248674163     1.073933865988
C     -1.694937427979    -2.949094866137    -1.347321391112
H     -2.628489073131    -3.233278044673    -0.866483978973
H     -0.888894347520    -3.673629654398    -1.304935379029
C     -1.513800428154    -1.759715864197    -1.967498449498
H     -0.547289481663    -1.523071775971    -2.388447678611
C     -2.534517203174    -0.707434056221    -2.093293547353
O     -3.719476710936    -0.927299740943    -1.722894141827
O     -2.141543014721     0.547019856184    -2.590788554004
C     -3.096193489230     1.605522053486    -2.428337745740
H     -2.675981453706     2.548385049144    -2.839129837964
H     -4.040672493191     1.376920738444    -2.972168327153
H     -3.321052825927     1.770832589637    -1.348702563940
Pd     1.257688781237    -1.534364280300     0.044186289936
C      2.327606597558     1.016472085416    -0.643272410847
O      1.651319216292     0.416139000625     0.380846285027
O      2.763921506014     2.175664667742    -0.556483225730
C      2.508616615811     0.171025014429    -1.974455073414
H      3.573840136154     0.203572426238    -2.242639026145
C      1.690095350770     0.760478228218    -3.103137778717
H      1.834025607329     0.170211788605    -4.029316659545
H      0.614239237903     0.753044588332    -2.828874976729
H      2.005401210355     1.807936928850    -3.293200453410
N      2.036387654460    -1.174480232579    -1.711316104588
C      2.111690177052    -2.400722406132    -2.158306450415
O      1.555601417726    -3.335030912962    -1.407954025070
C      2.767944364773    -2.743090812378    -3.425245214736
H      2.226265698474    -2.236929956912    -4.241101504559
H      3.814280040327    -2.398940790203    -3.371878432133
H      2.727781347677    -3.839294399940    -3.561489044269
N      0.455351133778    -2.186672947023     1.823227586278
C      0.206220149464    -1.350587268015     2.878718641479
C     -0.389113558823    -1.850656327516     4.019657032700
C     -0.731785726158    -3.183237908483     4.105404253676
C     -0.457900979990    -3.996823555192     3.035253041637
C      0.151831414964    -3.447054319688     1.890871183912
H      0.472415530850    -0.301649876786     2.815981994012
H     -0.595465470474    -1.184057683566     4.841149138202
H     -1.205670172292    -3.579030979884     4.999706617340
H     -0.695612647189    -5.041687509215     3.038357904296
O      0.364473151618    -4.323528965011     0.912379111525
H      0.808364806435    -3.996918247464     0.078482260482

