# STO-3G

title

0 1
C      2.064964955141     1.501650292261     2.980187402495
C      2.206653024116     2.254760658251     1.779693425970
C      3.483102441985     2.389491783593     1.164944719072
C      4.607802353690     1.806146597307     1.757810377906
C      4.479327494005     1.083971489532     2.974648361156
C      3.226343010744     0.930849376979     3.574882086333
H      1.097907822239     1.497778125359     3.477070055348
H      1.360398106770     2.823806684717     1.411494550473
H      3.581827841521     2.976512952370     0.255459496569
H      5.589033188480     1.924329388991     1.303183510355
H      5.363006749144     0.656704215130     3.444326946535
H      3.125633047973     0.376470693885     4.503149049927
C     -0.809929009505    -0.793983878300     4.011794741356
H     -0.144639373244    -1.377186565939     4.644416337218
H     -0.956458230116     0.245914370276     4.284564074539
C     -1.378344327162    -1.282774743706     2.885782298172
H     -2.000835010918    -0.637293540449     2.286045393143
C     -1.181912180818    -2.632257771020     2.333499042250
O     -0.399978867264    -3.446103012117     2.903382883614
O     -1.926512555318    -3.003464422265     1.202638057742
C     -1.447605277513    -4.153552440777     0.494106440770
H     -2.090188668747    -4.327969330864    -0.395545769631
H     -0.407351758415    -3.983166666497     0.131893460299
H     -1.480181843492    -5.061487059185     1.137083491015
Pd     1.067324619261     0.117098955662     1.230718390057
C     -0.617341436631    -0.598740808925    -0.980603695830
O      0.294080766316    -1.152654634575    -0.146054300144
O     -1.117692863307    -1.215486326960    -1.941124631700
C     -0.950146128135     0.892385222425    -0.662403598559
H     -2.021632177176     1.020117105762    -0.866799995168
C     -0.171682057967     1.825783604202    -1.567213404308
H     -0.444619149842     2.877767900117    -1.346995813287
H      0.915464374494     1.695589132688    -1.387432841856
H     -0.398728144143     1.606606879243    -2.631814457365
N     -0.563551696902     1.192425554549     0.728037723176
C     -1.228284115847     1.932917756365     1.631506056473
O     -0.833838955832     2.127227037073     2.824525057309
C     -2.509438304565     2.562237200159     1.224626886034
H     -2.322475036611     3.216220356774     0.357393121083
H     -3.233460538767     1.763281461066     0.995474212633
H     -2.889248615087     3.167673919447     2.068702985883
N      2.546055087962    -1.336184803532     1.399536289305
C      3.202532549750    -1.587192849648     0.224284004610
C      3.981261444771    -2.721886374342     0.096923219496
C      4.099471865830    -3.607256107248     1.145846010179
C      3.437201093923    -3.325608911722     2.313748410930
C      2.650879382240    -2.149000478201     2.386125642546
H      3.108492493447    -0.894853338691    -0.604216941150
H      4.487216976288    -2.914736382359    -0.834336419965
H      4.709543216260    -4.501674799739     1.051963039475
H      3.514519673853    -3.966444385845     3.166879313651
O      2.043588315672    -1.861843591647     3.559812784796
H      1.683063693154    -2.644306308568     4.023417043643

