# STO-3G

title

0 1
C      2.828821365145    -2.687551771416     0.622430199053
C      3.580957709406    -1.897861269380    -0.270722234651
C      4.811687051015    -2.368409335312    -0.769731599214
C      5.292109913764    -3.633377728629    -0.376099349880
C      4.540032919802    -4.426030376208     0.514403750454
C      3.309205457682    -3.953354532401     1.011874253573
H      1.878748922221    -2.327727818643     1.005528741897
H      3.208683937546    -0.920502087776    -0.573542214888
H      5.389125159668    -1.755376131225    -1.457894163240
H      6.242264481692    -3.998191571148    -0.760026328057
H      4.909755437351    -5.403501749090     0.816503062911
H      2.725312879635    -4.564356259730     1.696330141553
C      1.008046159723    -1.292038361155     3.423241189468
H      0.487072364986    -1.707910144276     2.562267084662
H      0.928981499667    -1.856380901451     4.351263936846
C      1.724768926289    -0.143033641284     3.374997560070
H      2.203908840855     0.242654065754     4.264050404422
C      1.917281558798     0.670895915165     2.163752665180
O      1.458664699795     0.271153180007     1.060262195159
O      2.602084642765     1.894053534938     2.268099736236
C      2.703636367788     2.655064233108     1.054602289356
H      3.251330258562     3.600630741510     1.254204190624
H      3.260862012643     2.087740289323     0.275201624308
H      1.694257849207     2.916322824503     0.660972502015
Pd    -0.986496806755     0.248879619478     0.754712383194
C     -0.092908419897     1.500234850631    -1.633391162892
O     -0.598519225507     1.840691621283    -0.409959740121
O      0.433489579809     2.345450224411    -2.378169240024
C     -0.250796024949    -0.009209391965    -2.057612107837
H      0.719552345419    -0.334627550325    -2.459639913824
C     -1.308064546777    -0.160337587047    -3.130262925477
H     -1.367145692098    -1.217186807052    -3.457340697025
H     -2.292787859320     0.144437007613    -2.718669902207
H     -1.060214191819     0.476191500717    -4.005308481816
N     -0.666237431963    -0.773332849856    -0.893259224547
C     -0.486196892979    -2.000685705400    -0.444310482478
O     -0.755293887383    -2.237740985957     0.806000096308
C     -0.009252996028    -3.076339815005    -1.329705623511
H     -0.743208654430    -3.202343121772    -2.141267615588
H      0.978839224012    -2.784182352912    -1.721901222145
H      0.077301196738    -4.005690561582    -0.738763241395
N     -1.266842044769     1.374530633223     2.489109798102
C     -0.997781584900     2.717151069488     2.530176162044
C     -1.038265830244     3.384735979513     3.741137785351
C     -1.368275758934     2.715696329709     4.900870984817
C     -1.659091315195     1.376028334043     4.821734093262
C     -1.600579269167     0.745746092795     3.556902425728
H     -0.732813291715     3.253491706730     1.628183368886
H     -0.812213566957     4.438158789570     3.768764406182
H     -1.411159350564     3.241122791176     5.851303262263
H     -1.965010908249     0.818355360789     5.681890414040
O     -1.930402532982    -0.556314526386     3.463723189110
H     -1.630928060752    -1.126093905514     4.195442011821

