# STO-3G

title

0 1
C     -0.883854544870     0.625479510408     4.029119883625
C     -2.028778335072     1.381842859076     4.373334256050
C     -2.857148079468     0.986414354831     5.446300991909
C     -2.543975286947    -0.169524316075     6.187950959750
C     -1.396318620305    -0.919645185726     5.859600874897
C     -0.573672989591    -0.523000784714     4.786621926922
H     -0.254237023393     0.933479687978     3.197161636413
H     -2.241089273184     2.303710526046     3.834044634467
H     -3.727838279137     1.583671247220     5.709066267654
H     -3.176895057264    -0.474744932427     7.017964684022
H     -1.143016149874    -1.808337710526     6.433905247974
H      0.309010962160    -1.109277023145     4.539691542399
C      0.851297134825    -1.320853488599     1.048317772485
H      1.467226823519    -1.670250809265     1.873526749067
H      1.340897312179    -0.695297242221     0.308774285156
C     -0.472524232091    -1.575025039064     0.962687266013
H     -1.048036998415    -1.148283701520     0.153052513548
C     -1.250733553528    -2.333255241927     1.954476039363
O     -0.661601323167    -3.039953610384     2.817673639023
O     -2.655583300738    -2.241128802918     1.919832950416
C     -3.349405770486    -2.913949286385     2.979640874871
H     -4.444219549536    -2.778212106818     2.850326212166
H     -3.130776698507    -4.006047911488     2.965280267094
H     -3.059563024658    -2.492967808284     3.969481016630
Pd    -0.255294600838     1.495772794338    -0.552341554842
C      1.364939369735     2.074977359113    -2.832219762556
O      0.092894988047     1.694707493071    -2.510495091007
O      1.681180734740     2.383061988089    -3.993257073896
C      2.401487002162     2.068968114276    -1.649991596659
H      2.939178883707     3.027799701059    -1.685466884411
C      3.394287202560     0.936679099407    -1.818285561539
H      4.150323452861     0.964587982019    -1.010002053005
H      2.858438768121    -0.034219497955    -1.779773778056
H      3.913522862293     1.027324290043    -2.795684239978
N      1.671495417014     1.869770539898    -0.406895787753
C      1.870008436884     2.142169937409     0.872631245882
O      0.897349258692     1.936732855861     1.696534210692
C      3.161226796595     2.668791860620     1.349325626606
H      3.937689463740     1.912868311983     1.154046154618
H      3.368042505696     3.609335149036     0.813449608554
H      3.081681374454     2.857447664205     2.435695329344
N     -2.284561301516     1.105422689976    -0.791268821485
C     -2.918537951918     1.107348783097    -2.004997762227
C     -4.264886757019     0.793959971417    -2.071850257209
C     -4.972903991413     0.482383151911    -0.928758389467
C     -4.312622193216     0.499540123549     0.275205635115
C     -2.938796560087     0.829343999472     0.283666019264
H     -2.372856075020     1.346479507313    -2.909494292921
H     -4.757241544236     0.791730545333    -3.030726111911
H     -6.028769761833     0.230362228076    -0.981897159672
H     -4.810176737376     0.258681787334     1.191166548525
O     -2.259336311103     0.860731261557     1.431679240379
H     -2.673502137314     0.574951721513     2.271054045762

