# STO-3G

title

0 1
C      3.253540453042     1.548590199365     1.876784548860
C      2.609839501811     2.792602428055     1.633830161278
C      2.796109554728     3.456224583218     0.414066865895
C      3.630815627876     2.892279850221    -0.579034300917
C      4.281740277816     1.667374938387    -0.351029158114
C      4.106562299776     0.998914339024     0.880389300170
H      3.222570056316     1.126063537361     2.876957737278
H      1.965325460752     3.208114809277     2.402148836834
H      2.300769489747     4.406278344198     0.231883630159
H      3.773204522632     3.413244378001    -1.523080599638
H      4.929634611102     1.241079383351    -1.111840499246
H      4.662800826117     0.090525778710     1.090515634351
C     -0.726757606948    -1.741273065497     3.578995298400
H     -1.127647867467    -0.731572539983     3.565986483454
H     -0.003809426365    -1.936370947470     4.366021603738
C     -1.044089420895    -2.688129662300     2.668701921759
H     -0.577282361652    -3.661998797398     2.718286162070
C     -1.997624932846    -2.510533585724     1.562628590710
O     -2.512880012612    -1.375499678065     1.348250797593
O     -2.416692033885    -3.648669733172     0.851618032473
C     -3.343281875076    -3.416744194331    -0.218179184519
H     -3.586971753760    -4.383481919718    -0.708171849505
H     -4.288038887338    -2.969955120065     0.164851486902
H     -2.899369481212    -2.746520240840    -0.987972646107
Pd     1.741075813427    -0.285568498356     1.218177000660
C     -0.127135654009    -1.066284899468    -0.795832130726
O      0.684219639375    -1.643465852843     0.132028228663
O     -0.636318126251    -1.707184399882    -1.734386185166
C     -0.394446038070     0.474695562230    -0.589965606002
H     -1.482644512929     0.621368219444    -0.642363223614
C      0.265674223601     1.304428073975    -1.666536999712
H      0.039674798973     2.377230826273    -1.497737305085
H      1.365392365592     1.164213107461    -1.621043392709
H     -0.107380034889     1.002902158555    -2.667428069939
N      0.201372586041     0.859238187595     0.685218166593
C     -0.355037816291     1.332107931247     1.790959309775
O      0.223843980407     1.266688110009     2.952062007488
C     -1.661483746997     2.012819098732     1.710870561330
H     -1.588777972715     2.810364304138     0.952749304687
H     -2.423920635737     1.262791261572     1.438629016849
H     -1.903760373566     2.443865987369     2.699121725225
N      2.747184392000    -1.607057113631     2.454695495901
C      3.396836888252    -2.751354958940     2.085343797845
C      3.907014769751    -3.590591020713     3.055028261407
C      3.756060616997    -3.290103911957     4.392053615153
C      3.074728832388    -2.149493728869     4.732340324524
C      2.553257124037    -1.322610567339     3.715343931025
H      3.526436337145    -2.984329594820     1.034633209991
H      4.426269934361    -4.487383738945     2.758830899973
H      4.158435139605    -3.947417919058     5.158354776189
H      2.908845845601    -1.869637589584     5.753613997117
O      1.871196239214    -0.283218469167     4.162116620292
H      1.217271628800     0.300750662112     3.568914510857

