# STO-3G

title

0 1
C      2.290109215156     1.458810080361     2.218444193874
C      3.498771233300     1.084000256505     2.860046159785
C      4.715064677318     1.681319427802     2.490839470637
C      4.743176242512     2.650760968024     1.464486503555
C      3.553551550326     3.027987914096     0.810278523860
C      2.328057646392     2.447666962969     1.197952350145
H      1.310006621157     1.245313856059     2.692912162130
H      3.480132966705     0.344524304790     3.655184112157
H      5.635969401866     1.397572822820     2.993301537479
H      5.687447453527     3.106475217254     1.177510374332
H      3.577106574818     3.780141453040     0.026603546112
H      1.395335632322     2.777872486393     0.750338508937
C      1.074213131778    -1.545379377992     4.155317849193
H      1.542681109468    -2.523662293578     4.241667071649
H      1.668069152905    -0.694637632796     4.482717229104
C     -0.178648075281    -1.345519282597     3.679198975992
H     -0.561436330578    -0.336809977121     3.631009370385
C     -1.090147467515    -2.396576702178     3.198838156176
O     -0.755949336159    -3.609834448562     3.287692196234
O     -2.322884745175    -2.013135687371     2.639985158772
C     -3.068534748361    -3.061565676943     2.004856400842
H     -4.003996308187    -2.643783171438     1.575723270278
H     -2.482586666685    -3.512202874847     1.170128457506
H     -3.340838670881    -3.855442986283     2.736427930966
Pd     0.985948216146    -0.293491232854     1.071985008518
C     -1.270756738723    -1.152597880240    -0.466950044733
O     -0.141064152989    -1.650641097169     0.102791821653
O     -2.072841435197    -1.867704545442    -1.093581977056
C     -1.463362034782     0.380243896401    -0.257206618576
H     -2.545728129232     0.550102660855    -0.196853351921
C     -0.912743579045     1.171827647854    -1.424300149378
H     -1.070661203862     2.255689107425    -1.249225969752
H      0.174684387284     0.979714433828    -1.527966152423
H     -1.427714957201     0.876615283694    -2.362783997579
N     -0.718025853665     0.781902728955     0.950302855869
C     -1.150058169805     1.543988620252     1.965885394480
O     -0.486306630580     1.736088168939     3.038995550806
C     -2.471906582688     2.203770831076     1.853663278043
H     -2.485241197373     2.817352296687     0.937900108133
H     -3.249158726733     1.421242256369     1.844478426432
H     -2.620400355667     2.851418712647     2.737860220101
N      2.529743441177    -1.689419544312     0.906957108085
C      2.223736571861    -2.982357568391     1.247996138898
C      3.143899773287    -3.988783105239     1.025567156083
C      4.358764028964    -3.709986296532     0.438372803362
C      4.623747142570    -2.413009215235     0.081983918240
C      3.654759488767    -1.422567622302     0.331559396044
H      1.271266784354    -3.215345913135     1.702488207238
H      2.894292611556    -5.000081153872     1.303503461695
H      5.082416639094    -4.499322968227     0.253325143754
H      5.539508972010    -2.127360496778    -0.395171665824
O      3.994434896482    -0.205344544988    -0.087738456017
H      3.306840189502     0.471163352017     0.122376208293

