# STO-3G

title

0 1
C      0.012497736114     2.118906056093    -0.256252385107
C      1.201070004931     2.645917411627    -0.836085661326
C      1.191851178825     3.149695784850    -2.139479565080
C     -0.007485100252     3.139478133288    -2.899027195271
C     -1.192346082935     2.644654800458    -2.340772623787
C     -1.194794548130     2.142173338202    -1.010722500820
H      0.014012943522     1.840762196834     0.792336374218
H      2.111536611179     2.660412223720    -0.243064343760
H      2.101961699311     3.561392784232    -2.569475486640
H     -0.008972674472     3.539241021434    -3.910389403340
H     -2.119111900038     2.666874491943    -2.907729635886
H     -2.131950707024     1.884935510547    -0.527088749113
C      2.299689168547     1.938606510332     2.456223414090
H      3.027757552490     2.745373734417     2.401922472816
H      2.543652933306     1.029074464164     1.913376524153
C      1.142315570194     2.024838041696     3.153306194606
H      0.466161451767     1.180385694180     3.146139616361
C      0.707574623142     3.201253586090     3.921013783970
O     -0.410004263970     3.167065168862     4.502631545188
O      1.523993540369     4.347424947614     3.973223867629
C      1.009785616671     5.448767615811     4.734845033525
H      1.736614615097     6.288705990462     4.704040993637
H      0.045178718736     5.807432176721     4.309202166115
H      0.859369259225     5.157341786994     5.799135499761
Pd    -0.438275296853    -0.216073832749    -0.954921162773
C     -2.150373586759    -2.507319086438    -1.194149904676
O     -0.895932946368    -2.101855039137    -1.535281462216
O     -2.660398585065    -3.561745090408    -1.609967415158
C     -2.908460426364    -1.520687981830    -0.225024570321
H     -3.468773704056    -2.130670513417     0.496181213657
C     -3.882024179825    -0.639888398170    -0.971971859402
H     -4.369741354982     0.059456099046    -0.261775844075
H     -3.343611974153    -0.053250294184    -1.743532145229
H     -4.659145683493    -1.262649482891    -1.462717569323
N     -1.890790467310    -0.651712298933     0.374690887272
C     -1.314073307755    -0.793590975790     1.570081629621
O     -0.100595999247    -0.425490589582     1.810591554644
C     -2.104936935098    -1.333885234711     2.693897674314
H     -3.042106174280    -0.755186433668     2.765655343521
H     -2.297659523399    -2.403277727614     2.509547468024
H     -1.522975314661    -1.220770226007     3.627700234211
N      1.474201933430    -0.317656722551    -1.738923262587
C      1.821388603505    -0.287842877539    -3.059905663499
C      3.140072116056    -0.469816686787    -3.425765167406
C      4.105676867808    -0.697247968725    -2.468556503368
C      3.724527503957    -0.732797063552    -1.151686271318
C      2.366593709249    -0.545594478946    -0.817131305836
H      1.063867233504    -0.105549215755    -3.813202624716
H      3.409208819029    -0.442632178024    -4.468541686047
H      5.143993128864    -0.848162065802    -2.751394490895
H      4.424622874317    -0.916705707378    -0.361899655100
O      2.124151311723    -0.604203060268     0.480969907944
H      1.171057656894    -0.527934241749     0.889803155960

