# STO-3G

title

0 1
C     -1.189781925210    -2.346984267515    -0.378153882949
C     -2.314508020018    -2.360588258275     0.489670700623
C     -2.348641247626    -3.261616140362     1.585794078437
C     -1.282046027583    -4.146433441304     1.802019507650
C     -0.156981599359    -4.135177305868     0.936509648628
C     -0.110766150848    -3.241592768505    -0.141385394796
H     -1.206941879603    -1.753529524320    -1.286108203347
H     -3.173545842982    -1.740014435474     0.253472873506
H     -3.219924752901    -3.281935400538     2.235310730771
H     -1.321275966751    -4.857271470211     2.624493254904
H      0.661168765845    -4.833110145017     1.101442479122
H      0.741759298379    -3.238036802364    -0.817112537460
C      0.246727535446    -0.091458235684    -2.452044621265
H      0.681894054378     0.233355356587    -1.511137479077
H     -0.756581467366     0.272213997606    -2.653713458482
C      0.874527818689    -0.928860157646    -3.309174461060
H      0.377555506571    -1.239758176734    -4.216676209831
C      2.225910372104    -1.486098154876    -3.119821666031
O      2.894262831385    -1.199647531080    -2.086527156195
O      2.731494923621    -2.365866357357    -4.092267957544
C      4.046193700500    -2.886121948061    -3.850137990548
H      4.332508361623    -3.563045042701    -4.684148865925
H      4.794668008476    -2.063110091340    -3.799740361769
H      4.072264928884    -3.472192572871    -2.903651643704
Pd    -1.025598906494    -0.090097495928     0.668072330060
C     -2.578388402169     1.672704719949    -0.965802060088
O     -2.490542305660     0.363926269924    -0.597390111251
O     -3.318138696700     2.039821258035    -1.897948362601
C     -1.699424078297     2.631103408850    -0.130217662583
H     -2.349977966646     3.418699105307     0.273009227308
C     -0.620093426515     3.299306851135    -0.959185378761
H     -0.122468028242     4.084689162055    -0.352975300330
H      0.142404500789     2.554364354971    -1.254131082535
H     -1.060565758318     3.769880831381    -1.862729291662
N     -1.055481613339     1.897458299549     0.982319696573
C     -0.839184510405     2.593622124082     2.121989746404
O     -1.043283434338     3.833896764617     2.252511043393
C     -0.360543362442     1.826303540327     3.284979365350
H     -1.034927272074     0.968803141109     3.432328287003
H      0.671412582244     1.513191222451     3.072008885310
H     -0.373599223543     2.483908188362     4.172853212173
N      0.654963002498    -0.675398854961     1.745343073438
C      0.523385170548    -1.482271223346     2.843661472894
C      1.646872285005    -1.989324172560     3.465687201660
C      2.904270238941    -1.693719174849     2.987014774546
C      3.008289942360    -0.877072742637     1.889598787724
C      1.823150649213    -0.383024083688     1.289624494750
H     -0.462435872357    -1.714239032418     3.227970071686
H      1.532799783957    -2.625232829682     4.328387418778
H      3.791543131728    -2.091679040535     3.472781284075
H      3.964875246748    -0.607722513240     1.491258420159
O      1.927736427709     0.448740257564     0.236002896429
H      2.786471627668     0.441535504080    -0.228957429515

