# STO-3G

title

0 1
C      0.257260488887     2.106690552935    -2.397740145189
C      1.498377534907     2.763468494625    -2.526494178320
C      1.672494221255     3.744771976328    -3.522551996732
C      0.610410936365     4.071542768724    -4.389053408651
C     -0.630080625092     3.416313078859    -4.258013707776
C     -0.806796797134     2.434827412303    -3.262515026809
H      0.134223307606     1.343314915533    -1.633513869481
H      2.312400010816     2.514032912882    -1.851672919531
H      2.630577241763     4.250434314967    -3.620378630445
H      0.747337302835     4.828874982292    -5.158136742790
H     -1.451891298521     3.667581757760    -4.925213059148
H     -1.766708482987     1.934522003921    -3.162648759436
C     -2.298942004717     0.021856370231    -0.961500986232
H     -3.038216540467    -0.774602643432    -0.977660373362
H     -1.510157766771    -0.050188139701    -1.706225291000
C     -2.312049892699     1.027686732710    -0.057523654077
H     -1.536948823242     1.783033428475    -0.081582865879
C     -3.312924426080     1.180540010291     1.008864867062
O     -3.186172838690     2.133524457744     1.825498813444
O     -4.382832298347     0.271164268371     1.103495270045
C     -5.205870948182     0.396487323738     2.270828412862
H     -6.007449600733    -0.372151199699     2.239593720625
H     -4.603552512483     0.231740779868     3.193522590852
H     -5.686347855184     1.400196413893     2.312190406008
Pd    -0.091143003320    -0.782880329953     1.345223694195
C      1.922403854745     1.261392976199     0.940471168790
O      1.438168128277     0.130583882495     0.343162406095
O      2.808864809184     1.960528817110     0.431468026239
C      1.260623935507     1.625903274597     2.328651530318
H      0.912470270033     2.666265931414     2.243309499363
C      2.273466249295     1.533054651015     3.450151010768
H      1.818557134998     1.871795496164     4.401639419131
H      2.606956685102     0.480657514384     3.562397336084
H      3.151660288792     2.175081816593     3.227298084955
N      0.185660517254     0.692377080212     2.594658290562
C     -0.881740872804     0.548921702277     3.347159657127
O     -1.617588650099    -0.507823643853     3.087409333675
C     -1.258168558355     1.513802995488     4.388202437761
H     -0.459010470757     1.540181721438     5.145190237655
H     -1.388875342934     2.496154919935     3.902502510230
H     -2.211728722604     1.187045834793     4.839782508450
N     -0.432858291698    -2.305916525511    -0.002612196493
C     -1.368583899400    -3.249548521706     0.324355657730
C     -1.700256984699    -4.232184017527    -0.585971547971
C     -1.091625490197    -4.275976666539    -1.821889160581
C     -0.158080360067    -3.318302953542    -2.121769838127
C      0.154853385860    -2.329690583329    -1.166464809741
H     -1.852109131526    -3.217150370853     1.294337415155
H     -2.440357908619    -4.970290674300    -0.322831483812
H     -1.348003217090    -5.048609821722    -2.541978297709
H      0.349257440733    -3.292230252380    -3.065988243953
O      1.044247118391    -1.446891469184    -1.572504589228
H      1.332305554951    -0.719810181801    -0.906299930195

