# STO-3G

title

0 1
C      0.144086142494     2.539821065485    -1.461033991404
C      1.227204621107     2.575446400190    -2.362120118320
C      1.529294215863     3.763885763009    -3.055404140200
C      0.753363626229     4.920919021798    -2.844981284700
C     -0.325142527008     4.889528546921    -1.938580761203
C     -0.628630376926     3.700014976014    -1.247693920022
H     -0.087158748687     1.620813953181    -0.929225938695
H      1.837474850027     1.688932021538    -2.514654375994
H      2.367354961761     3.787724032826    -3.747705160058
H      0.987828247363     5.838578477199    -3.379831488979
H     -0.925073874378     5.781861116776    -1.774514247269
H     -1.466422997116     3.683283346633    -0.553113929604
C     -2.155205493967    -0.262254359363    -1.332915883859
H     -2.516562421335    -1.279109668747    -1.464334158378
H     -1.292575884584     0.006928460696    -1.938383963639
C     -2.713942566263     0.623004410918    -0.476508703933
H     -2.307376046213     1.620359483179    -0.396620375430
C     -3.857480079342     0.348235267728     0.405413329566
O     -4.405366609960     1.312849636939     1.004843239568
O     -4.369813323759    -0.960842643291     0.501205080224
C     -5.459337468913    -1.137006972277     1.416721314893
H     -5.774748335739    -2.202120708690     1.414379640754
H     -5.150754511643    -0.865278155163     2.452090224376
H     -6.332757579504    -0.514736406142     1.116202452543
Pd    -0.028960190548    -0.598356213144     1.092585684435
C      2.439780715627     0.757539715347     0.410216517536
O      1.731277169453    -0.373577069430     0.094919358278
O      3.514856818866     1.041039814469    -0.130480890462
C      1.771532297212     1.677541542891     1.507643235690
H      1.710674628620     2.683717365383     1.069414170926
C      2.617326668666     1.727510888298     2.762103718749
H      2.174405211905     2.435326928378     3.490215318917
H      2.662789900001     0.717622164932     3.219686435473
H      3.645922437535     2.066035951974     2.516135288252
N      0.471994431132     1.132977960116     1.846694637498
C     -0.655213101995     1.446371546845     2.442746485476
O     -1.584619838662     0.518828372657     2.420208550419
C     -0.893891278772     2.764489943176     3.043813504796
H     -0.193433921028     2.892546517995     3.884355967505
H     -0.727858706453     3.528005891316     2.265779342344
H     -1.939265687769     2.800602029037     3.402467296537
N     -0.584550158253    -2.399758070629     0.259223360421
C     -1.703319353720    -3.018331742990     0.749199090582
C     -2.169058418131    -4.170281448181     0.148870065980
C     -1.515813570574    -4.706344906785    -0.939721572697
C     -0.398906442257    -4.065315836167    -1.409287950787
C      0.047702410172    -2.890088542189    -0.770624110127
H     -2.224464282202    -2.596820819089     1.601499221697
H     -3.055736487427    -4.645675030777     0.534716155561
H     -1.880110988315    -5.612213760632    -1.416996216686
H      0.152537204534    -4.426300108646    -2.254625336854
O      1.112305576477    -2.343840103536    -1.321462290642
H      1.509341938367    -1.511984472094    -0.861899286616

