# STO-3G

title

0 1
C     -0.309470819336    -0.386851282110    -3.567439992446
C     -0.327950864775    -1.784557979164    -3.747485940755
C     -0.955619571275    -2.341461837481    -4.879886399800
C     -1.560575335442    -1.501446641169    -5.835795186356
C     -1.534248784834    -0.102914083993    -5.661005783729
C     -0.908692959010     0.452870279920    -4.527729719326
H      0.158242642377     0.053850478541    -2.692779914696
H      0.147561119879    -2.435951620654    -3.018288604233
H     -0.967586314914    -3.420174176086    -5.018791475441
H     -2.041804355553    -1.931691746489    -6.711333649944
H     -1.993675754387     0.547464778420    -6.401985526349
H     -0.891847389367     1.530304866747    -4.382168286686
C      1.346838855802    -1.166832374969    -0.669874146708
H      2.024866029840    -0.860752446082    -1.465663699914
H      0.298835646757    -1.247091567600    -0.940616311360
C      1.740615985980    -1.400434529662     0.602528007243
H      1.002334380055    -1.654514827080     1.349641652842
C      3.126193526333    -1.278262283357     1.087701107761
O      4.054195880885    -0.984058841434     0.285502093401
O      3.378830636937    -1.467878639749     2.458093722916
C      4.735539348531    -1.268420106745     2.877752479236
H      4.811715234360    -1.444981439557     3.972078387348
H      5.417995584000    -1.981410265807     2.361754135053
H      5.062851317812    -0.224720603224     2.668312526807
Pd    -0.860649733563     0.710065511612     0.721055778601
C     -2.321361585956    -1.461614989974     1.847268629938
O     -1.185170549093    -0.742215501298     2.090618014053
O     -2.755513168325    -2.308395555888     2.644765011561
C     -3.072586464396    -1.181213848387     0.472211673865
H     -4.118846972144    -0.952248919050     0.718539495901
C     -3.025357672202    -2.392340175592    -0.435290202229
H     -3.627181202882    -2.209245900199    -1.347013899258
H     -1.975509354502    -2.600230188118    -0.726375821472
H     -3.440106324455    -3.277884263233     0.090727020372
N     -2.401910926289    -0.075409295966    -0.181784296686
C     -2.459358658016     0.734828592503    -1.203715294703
O     -1.509676746061     1.659071190294    -1.265867372883
C     -3.496704363731     0.650714775602    -2.236516879399
H     -3.369105955072     1.500730658765    -2.929706936008
H     -3.357638003371    -0.298521250605    -2.780942817433
H     -4.484540619763     0.692378753600    -1.746803189493
N      0.863486512977     1.626640805404     1.373391558556
C      1.397524844098     1.420193461290     2.616104451959
C      2.626128952405     1.966980400750     2.930033411934
C      3.315334671207     2.720000678154     2.002317950524
C      2.747308966289     2.915475924883     0.769304486925
C      1.494589519331     2.336681511075     0.488296865009
H      0.862324339153     0.820470515547     3.343638382460
H      3.048303917297     1.789725899731     3.905350882706
H      4.286644299330     3.144627844566     2.241152012664
H      3.236083184044     3.477068529899    -0.001429727512
O      1.055041437786     2.552959416122    -0.748330077902
H      0.147597449876     2.205774191793    -0.991856367616

