# STO-3G

title

0 1
C     -0.849273579685    -2.212849119311    -0.304024581262
C     -0.163392035878    -3.426311937179    -0.016746670488
C     -0.421562571554    -4.120148076036     1.169419875810
C     -1.367374850513    -3.618343742233     2.103375170678
C     -2.064310135816    -2.435719881096     1.832928664541
C     -1.819733744998    -1.730257968550     0.620714904954
H     -0.763924578596    -1.707016376455    -1.262544697626
H      0.555579316260    -3.817099872869    -0.732339902716
H      0.097709157373    -5.053307687705     1.376917139977
H     -1.565510160161    -4.173311410906     3.017542677825
H     -2.819871946110    -2.071215352478     2.524015548134
H     -2.464644851993    -0.907099300246     0.330649180604
C      2.078395763028     0.385278938848    -1.893581880505
H      3.132202462496     0.600376193534    -1.724747616139
H      1.373284911045     0.959339968477    -1.300846754687
C      1.631993087740    -0.521103068717    -2.802789101517
H      0.564990746954    -0.656709082110    -2.911725460998
C      2.494279890095    -1.325412216175    -3.686873949374
O      3.746203442851    -1.183629108871    -3.645916770308
O      1.892578852442    -2.257656504808    -4.550013027780
C      2.788234287891    -3.022170583465    -5.369244323556
H      2.201260847079    -3.720182478514    -6.004093774382
H      3.378651891433    -2.355757100338    -6.038313347714
H      3.483002636734    -3.623979803344    -4.740255437820
Pd     0.086547136940    -0.176329118467     0.762568795916
C      0.320514749123     2.589564430017     1.452156756854
O      1.042602446029     1.438810358009     1.493994351460
O      0.720097751902     3.653993949755     1.956932515299
C     -1.063627976248     2.453219930969     0.742698057590
H     -1.226547377361     3.393891255141     0.200629410827
C     -2.181069917910     2.277632662926     1.749548920282
H     -3.153804760641     2.207161225871     1.221272643844
H     -2.020421990056     1.344414154217     2.327395257773
H     -2.208209444801     3.141865757796     2.446424885973
N     -1.041339216383     1.256689995941    -0.114628010306
C     -1.466394985756     1.136085808196    -1.382292359162
O     -1.315666051017     0.086313487567    -2.087092788501
C     -2.167448662093     2.282941774255    -2.008168616542
H     -2.507003549598     1.976815589472    -3.014938205566
H     -3.040753939482     2.541524277219    -1.387239013553
H     -1.461123156398     3.125135585749    -2.104306434824
N      1.444518471400    -1.348101444141     1.794296285584
C      1.264896051314    -1.408421055825     3.149628249598
C      2.146718930189    -2.129211971733     3.930462020505
C      3.218034443844    -2.777371309049     3.354240150972
C      3.381000033454    -2.682269077300     1.996594557673
C      2.458717863430    -1.929429359956     1.242244138447
H      0.419403216568    -0.905555226812     3.604253718757
H      1.996254599373    -2.176888733583     4.996107394439
H      3.919092241364    -3.343659934357     3.961447447157
H      4.198790632557    -3.149692445724     1.485635642895
O      2.727650192140    -1.894754232559    -0.058137876682
H      2.200379014757    -1.250582293059    -0.605386563339

