# STO-3G

title

0 1
C      0.555537782018     2.984481486615    -0.693922239643
C      1.790598137526     3.441243756219    -1.195904647404
C      1.854964281339     4.073714940464    -2.454665129432
C      0.679384319016     4.252590884310    -3.212171033069
C     -0.558437407330     3.804925463445    -2.705916985263
C     -0.621409299899     3.172728031509    -1.447632667602
H      0.488847658825     2.480586363878     0.263518255278
H      2.699442705561     3.306494616599    -0.610063573009
H      2.810197172113     4.427298181510    -2.837632874665
H      0.727672329076     4.745018125787    -4.181054821899
H     -1.467265030759     3.955744551057    -3.284606564527
H     -1.562697360418     2.822005002314    -1.035709615493
C      1.084739081068    -0.332434319804     2.663170097661
H      0.326189075274    -0.742030003578     3.326507502105
H      1.667483481775    -1.045577214442     2.091892254650
C      1.270823008606     0.998368976271     2.501476286868
H      2.020286786385     1.347381478435     1.802584012774
C      0.478369224845     2.046265399513     3.163612985241
O     -0.444232570203     1.731817435097     3.967197306677
O      0.798144330704     3.391061198803     2.907488441969
C     -0.103962543955     4.362501714910     3.453196939529
H      0.241407808054     5.381190466195     3.174644150478
H     -1.129140045879     4.220131863202     3.041452897994
H     -0.135185764759     4.295016146055     4.564209888919
Pd    -0.187336816837    -0.510107070599    -0.132178662193
C     -0.673306407807    -3.158150572794     0.852695673361
O      0.148780565925    -2.500997002001    -0.007405544483
O     -0.502289743755    -4.351670403270     1.163106279483
C     -1.881350353609    -2.323686392134     1.432636425636
H     -1.884822131798    -2.470635488360     2.523001083776
C     -3.196015324245    -2.813270945312     0.861654399396
H     -4.040807096532    -2.268406520555     1.325922340848
H     -3.209567719018    -2.637181194548    -0.234001824178
H     -3.318053235553    -3.898796318140     1.060383989072
N     -1.694643745893    -0.937269479280     1.045544390275
C     -2.106189791294     0.254559468924     1.420056827117
O     -1.559678359924     1.277224530617     0.825471345622
C     -3.098039266060     0.436567734077     2.490680805959
H     -4.042515944297    -0.034393234887     2.178468566255
H     -2.692565066607    -0.025735196461     3.406329494399
H     -3.239110888629     1.520252820477     2.653820216319
N      1.386589921626    -0.064200574431    -1.417424730935
C      1.056683074422     0.354849220015    -2.678425900880
C      2.050509758012     0.589785982289    -3.608702130735
C      3.375255152733     0.425359092094    -3.271342031296
C      3.678736035026     0.019814340446    -1.995320492070
C      2.616336771280    -0.217218511263    -1.085901917204
H      0.015781473195     0.495931516008    -2.945430968460
H      1.779516061575     0.925996388319    -4.595662829063
H      4.160415655888     0.623697542304    -3.996082219398
H      4.695237736209    -0.096309057598    -1.684095026586
O      2.917397692632    -0.554574075733     0.184975020269
H      3.827016618846    -0.860806418298     0.345003079090

