# STO-3G

title

0 1
C      1.665280224373    -1.847214838017     2.017091016718
C      2.891151699384    -2.329672277197     1.483498575967
C      3.123097115300    -3.722392194770     1.388346953384
C      2.149036710636    -4.626838223159     1.841649126013
C      0.927460250804    -4.152086648219     2.381061946231
C      0.686017635684    -2.775108809819     2.466259617390
H      1.534752674737    -0.788045933797     2.223124590643
H      3.658716300520    -1.615312584011     1.203331738914
H      4.066846507436    -4.085837533634     0.990239076509
H      2.333465315593    -5.697616773689     1.790069161870
H      0.177693511050    -4.856840327614     2.733100926040
H     -0.253167287211    -2.413096530424     2.876757992517
C     -0.061349401868     1.288923747939     1.745728864710
H      0.877088544084     1.676723417546     2.135367293481
H     -0.255041655847     1.474983914001     0.694927918085
C     -0.957263222577     0.590877439717     2.483106565311
H     -1.847896663668     0.198040910849     2.009096661907
C     -0.802120708368     0.278393126919     3.912571333378
O     -1.667369637008    -0.445508595693     4.473272914822
O      0.367960938138     0.672374071832     4.588417882238
C      0.494274112861     0.217326698009     5.942545936745
H      1.450387427613     0.591028045186     6.368076046732
H     -0.341217492524     0.603181903300     6.569560658029
H      0.507213614196    -0.895585640499     5.984884894100
Pd     1.235949200185    -0.964640451099    -0.214758728116
C      3.294381318227     0.854756221795    -0.989302483282
O      2.744929188626     0.351672882202     0.140484992243
O      4.299069773076     1.587935622347    -1.019827080261
C      2.527617698234     0.344886160899    -2.265942394961
H      2.873336515125    -0.683210883625    -2.443846919780
C      2.813686890619     1.133303901024    -3.528851385345
H      2.176226064257     0.770060428949    -4.359296755443
H      2.682112417823     2.217933164069    -3.359268992070
H      3.873746591450     0.977558904881    -3.820188989625
N      1.095581452861     0.230387431414    -1.885309072398
C      0.012309062517     0.978007567412    -2.005749719142
O     -1.065481673564     0.807607998795    -1.314762306827
C     -0.040077247721     2.116124856975    -2.943612737092
H      0.685067845946     2.875440589349    -2.612859928582
H      0.147624565315     1.745982350598    -3.962412535472
H     -1.051603513498     2.564038493262    -2.913684918722
N     -0.183521709955    -2.394884407224    -0.608581072442
C      0.309955495337    -3.640742732167    -0.886285409363
C     -0.534662672404    -4.731302331911    -0.905302087350
C     -1.877978882446    -4.579500449752    -0.642632381692
C     -2.353550851316    -3.320676791467    -0.388591386225
C     -1.466190666663    -2.221885641330    -0.396399766592
H      1.368730394152    -3.770766002376    -1.076076690244
H     -0.133059148488    -5.709396494704    -1.110831141087
H     -2.546124103597    -5.436490374241    -0.644958144498
H     -3.389483984185    -3.131760140622    -0.190018705466
O     -2.017383271289    -1.063678287376    -0.174839851607
H     -1.494123394274    -0.176741027798    -0.623214597250

