# STO-3G

title

0 1
C     -0.082704435869    -0.011922892146    -3.834203260700
C      0.865717879125    -0.879318923474    -4.411717862102
C      0.800353579939    -1.180101084512    -5.786903908204
C     -0.212224482748    -0.612150856483    -6.585597721092
C     -1.159273561415     0.258304477623    -6.008973511890
C     -1.093733039215     0.557241098457    -4.633848656425
H     -0.054498403516     0.224854616149    -2.777253336147
H      1.651434943548    -1.316709015758    -3.799387705745
H      1.532566783191    -1.850112527474    -6.232190127943
H     -0.261201030046    -0.843955751671    -7.647292217874
H     -1.938170058106     0.700947890263    -6.625971042709
H     -1.817026127728     1.229569016589    -4.178073119322
C      1.674671321713    -0.454968666731    -0.931576504583
H      1.019910014484    -1.230622390923    -1.322004433336
H      1.805954157948     0.421500609334    -1.562381050584
C      2.279456642415    -0.540007435011     0.275437200906
H      2.893319893949     0.281788709743     0.621417022532
C      2.128498490967    -1.658176097883     1.219530137181
O      1.520095157450    -2.703822669124     0.861289596560
O      2.727338924946    -1.555941014543     2.486841119061
C      2.368217404058    -2.580263263438     3.425132209059
H      2.882282679993    -2.392752992370     4.391662122539
H      1.269129468070    -2.574711060928     3.613277615328
H      2.674516609259    -3.584806157200     3.055349442727
Pd    -0.766771208742     0.533649713813     0.798374898291
C     -1.460133024038    -1.753284830427     2.340449496649
O     -0.618297346898    -0.680145525756     2.405157276043
O     -1.582122848522    -2.555164617115     3.281953647468
C     -2.294363906330    -1.940999842045     0.996101781555
H     -3.350424417660    -2.031473223789     1.286098841305
C     -1.871433400391    -3.192826976073     0.256511906929
H     -2.506317145151    -3.349516777051    -0.636826480898
H     -0.814929218398    -3.094495756634    -0.066492476712
H     -1.963374025341    -4.077049932129     0.921399432247
N     -2.047242895014    -0.787244460759     0.150887615545
C     -2.384135135754    -0.201430090905    -0.965693029800
O     -1.750401245121     0.931318807705    -1.243235328372
C     -3.408115797736    -0.716884076613    -1.881753168110
H     -2.908103396390    -0.991612930014    -2.826649618509
H     -3.898189967524    -1.593867554079    -1.429828151422
H     -4.146397432619     0.085362080529    -2.054525361062
N      0.565324158223     2.035019044231     1.235056812261
C      1.178120415223     2.144157620319     2.453598400536
C      2.128694488246     3.126394083422     2.651577723898
C      2.458404125879     3.998629002841     1.634859074060
C      1.823072811136     3.861812993921     0.426369647102
C      0.859947882358     2.846783939239     0.266781554409
H      0.924374161781     1.457000678687     3.252961732554
H      2.613850863290     3.205698404170     3.610905011225
H      3.206009029805     4.772717723178     1.786685265722
H      2.035906684681     4.502162150681    -0.406371420222
O      0.327137439737     2.781546523112    -0.951225230185
H     -0.399525983317     2.111557370193    -1.106317996633

