# STO-3G

title

0 1
C      3.237454645267     2.525697952211    -0.309339295369
C      4.040918144774     3.187908750861    -1.260226430476
C      5.442699189767     3.210783204212    -1.111806049188
C      6.040990730590     2.572266312505    -0.007265618266
C      5.237317751132     1.913314525828     0.945824954907
C      3.836515805799     1.885984848049     0.795891975363
H      2.160076809584     2.490704901687    -0.434243278500
H      3.579083112667     3.684443729559    -2.113111172288
H      6.059188065925     3.725940886385    -1.845590614607
H      7.122185604912     2.594233164260     0.112385404606
H      5.699555523222     1.426367151537     1.801656297632
H      3.208066650753     1.367712129491     1.513467761811
C      0.203754437286     3.541564909113    -2.052933785833
H      1.108774734272     4.139587123265    -1.981204990331
H     -0.025958892213     3.130866596662    -3.032456835851
C     -0.587303526884     3.281846299007    -0.986678077648
H     -1.457831507199     2.655522004388    -1.111151911443
C     -0.345046895566     3.763206806733     0.383280746088
O      0.569890129085     4.599773387295     0.606759543556
O     -1.149584750015     3.261928850267     1.422601464544
C     -0.733684587148     3.612771445098     2.750890448547
H     -1.421552550604     3.151375570083     3.491083684256
H      0.294379421996     3.232447095453     2.956241541790
H     -0.752952845580     4.716887193346     2.895486867311
Pd     0.202632862343     0.032738517402    -1.060210580716
C      0.190724893727     0.189461751385     1.791475491580
O      1.083976518143     0.138087177612     0.760325913167
O      0.545358298390     0.400673083752     2.964127501772
C     -1.334318342467    -0.046236133630     1.426391360435
H     -1.922136173743     0.731445137747     1.932483726047
C     -1.802893795133    -1.407420602637     1.893214525073
H     -2.874323625674    -1.545960342339     1.644820117693
H     -1.210417687732    -2.197129417538     1.386277493684
H     -1.670962570507    -1.498850637339     2.991803186825
N     -1.447895413667     0.004712505562    -0.017102225193
C     -2.309706402847     0.188125998550    -0.980160773357
O     -1.815619704059     0.240399692483    -2.206633288291
C     -3.749889888639     0.362120277874    -0.754945580904
H     -4.273254585062    -0.450743879528    -1.286623244759
H     -3.961892430222     0.320238423647     0.326079174484
H     -4.044931576193     1.342976754192    -1.166898816115
N      1.753194662685     0.188644897585    -2.406398785595
C      3.059992897640    -0.053065512891    -2.077791097532
C      4.046753344959     0.122046011819    -3.027552840040
C      3.728744529184     0.548685246417    -4.298614657157
C      2.409786749642     0.779122294108    -4.597751211560
C      1.432895497244     0.578607253694    -3.602775451718
H      3.315972119962    -0.379002529617    -1.076022564283
H      5.075013620354    -0.048850542502    -2.753349414049
H      4.504563409456     0.700302642190    -5.044208384135
H      2.094988037825     1.109160724238    -5.567304096637
O      0.190713105749     0.846014048887    -3.999480628168
H     -0.559703783167     0.671665527129    -3.358681465218

