# STO-3G

title

0 1
C     -0.857143109023     1.106313877124    -1.036950223453
C     -2.127119384955     0.496353484638    -0.972796405946
C     -3.267820272898     1.272801733469    -0.688377337046
C     -3.143006248764     2.658977361546    -0.469436316525
C     -1.875061838395     3.269606338764    -0.539144789988
C     -0.733091442571     2.494624116128    -0.823279799885
H      0.015994836254     0.496053803773    -1.253169506287
H     -2.228832856143    -0.571800278983    -1.143660484768
H     -4.245251075046     0.798236258429    -0.640575973020
H     -4.024715918035     3.257912148527    -0.251587499229
H     -1.777567058797     4.341018340238    -0.377268191272
H      0.241884836523     2.971022671663    -0.882040017518
C      2.756533556100     1.400793781615    -1.406310077131
H      3.678806519757     1.606727459471    -1.944659533404
H      1.889806143527     1.181166751234    -2.025181303138
C      2.676282079864     1.385523674293    -0.054410665746
H      1.732311001701     1.164716308658     0.423971732143
C      3.799477661946     1.639285184363     0.862876678152
O      4.937648557841     1.929782453258     0.402506066813
O      3.544903012305     1.650504227510     2.247646804508
C      4.693669371207     1.826131870567     3.088008942799
H      4.378342714972     1.813185525890     4.152956577885
H      5.425096539835     1.000699823280     2.929114030859
H      5.188479100221     2.802921011822     2.883644228593
Pd     2.333879658564    -1.637987899640    -0.364187797324
C     -0.418289614232    -2.345333181812     0.148984816182
O      0.409924349727    -2.049653011388    -0.899994902681
O     -1.554225803524    -2.811728030575    -0.004253639709
C      0.172553695729    -2.021524054259     1.577957866760
H      0.031048096346    -2.926178643568     2.187326234513
C     -0.573723795414    -0.870154452257     2.219087863910
H     -0.217972214121    -0.716661678000     3.256626835209
H     -0.402335265741     0.058797499217     1.637266744118
H     -1.662834876268    -1.085205303608     2.244288266778
N      1.569215070177    -1.656465559295     1.436057784240
C      2.668955377309    -1.526565739375     2.144311286482
O      3.770477087095    -1.344623545302     1.455352222399
C      2.677443152635    -1.548957762461     3.612615452621
H      3.725589262926    -1.472977528721     3.951475202002
H      2.102836948421    -0.676216079862     3.963307894536
H      2.223675143639    -2.495287703293     3.952422855472
N      3.146284868129    -1.596894265868    -2.255957380765
C      4.499777228169    -1.423709631706    -2.364343900349
C      5.075321083042    -1.279864400342    -3.610217454528
C      4.299345083248    -1.315958581461    -4.748753485390
C      2.947026577271    -1.492561305814    -4.609620919000
C      2.394385018695    -1.634444989545    -3.320301517362
H      5.113432645305    -1.389411945617    -1.470906943986
H      6.141019394526    -1.137032017685    -3.687185206011
H      4.748207765726    -1.203616501576    -5.732144977947
H      2.286578082994    -1.526049581853    -5.453284491922
O      1.083792379656    -1.773831837075    -3.302774081821
H      0.635960099427    -1.925733122140    -2.390479609923

