# STO-3G

title

0 1
C     -1.002123866058    -2.498943730112    -0.441676946690
C     -2.073307770245    -2.584511882281     0.489144859125
C     -1.964851432060    -3.447424309843     1.612521972897
C     -0.810732316681    -4.221632080819     1.793433371712
C      0.257127141390    -4.143158098589     0.861370674684
C      0.161890762777    -3.291061835703    -0.245090118569
H     -1.117761370824    -1.929891073499    -1.356836491080
H     -3.000007468615    -2.056169986591     0.285502057782
H     -2.790821700410    -3.517928133018     2.315063080912
H     -0.734012528895    -4.896226130913     2.643128146577
H      1.145705780113    -4.754622679392     1.003585262685
H      0.972614438230    -3.234654793741    -0.968247097349
C      0.181059043804    -0.199284565287    -2.513370829348
H      0.691675492667     0.007401124775    -1.577293296898
H     -0.836072143561     0.175555480306    -2.583590922058
C      0.736642117998    -0.921079687393    -3.513467520202
H      0.168999288017    -1.124224574088    -4.410092170506
C      2.096688149250    -1.489043676279    -3.497375926823
O      2.842340071735    -1.328186844021    -2.490187908224
O      2.528055436220    -2.230189852375    -4.611095328203
C      3.852942390589    -2.774395888000    -4.531440820609
H      4.076661682025    -3.334666269679    -5.465067025539
H      4.608496919308    -1.963365591069    -4.424343030258
H      3.940262984002    -3.480188229315    -3.674476378740
Pd    -0.962305496449    -0.319165877288     0.712083556899
C     -2.598193053407     1.558997735877    -0.691310600419
O     -2.444882308558     0.224006030301    -0.520139404553
O     -3.401349981768     2.050764800314    -1.507191841121
C     -1.672447835765     2.437774255045     0.209510401180
H     -2.305745167424     3.259067356522     0.572619926179
C     -0.522082117610     3.030416857388    -0.579309214138
H      0.028776194729     3.758534237712     0.048475768322
H      0.182625195229     2.227213305280    -0.870381231345
H     -0.898408669296     3.547199890139    -1.486896557210
N     -1.112675520565     1.604883605327     1.285773259867
C     -0.907144257254     1.924287430364     2.576528635076
O     -0.520224504960     1.111703257566     3.470471038889
C     -1.166948022478     3.324367055334     2.999343520217
H     -2.243057760885     3.531367392443     2.884326144256
H     -0.888756345662     3.419068814827     4.064436499623
H     -0.543741877544     4.002274398558     2.393885532556
N      0.701306541189    -0.809102189798     1.822290375083
C      0.565366997979    -1.392254187530     3.053377911398
C      1.688735502407    -1.814326109963     3.741831445146
C      2.945722594999    -1.610400490543     3.217169163683
C      3.052266532801    -0.995500456448     1.994310516918
C      1.865507797890    -0.604356837249     1.325330446905
H     -0.422115506825    -1.552722536492     3.470152830279
H      1.570233174752    -2.278656272502     4.705970453439
H      3.831547557809    -1.920195770412     3.764943214614
H      4.007810057834    -0.790413211623     1.560285428921
O      1.970751375016     0.037652524578     0.136638610268
H      2.814388107287    -0.090195346933    -0.338440724993

