# STO-3G

title

0 1
C      2.189069377022    -2.795175866273     0.920868180887
C      3.456828726158    -2.417902915872     0.433112930390
C      4.364664895495    -3.400105646042    -0.011440985969
C      4.006713548942    -4.762288326893     0.034226144023
C      2.737436872531    -5.140464612774     0.517824092347
C      1.828604265377    -4.157426689341     0.956880103720
H      1.479585378742    -2.043948318384     1.255282317704
H      3.736261862744    -1.365590682643     0.392197459903
H      5.341242463848    -3.104303536303    -0.388395130376
H      4.708630602533    -5.520485757050    -0.306164388051
H      2.457661121967    -6.191265522411     0.547077001660
H      0.835862108143    -4.433176646880     1.302447433622
C      2.064423250044     0.063984869922     2.819223506308
H      2.824774043852    -0.542842182524     2.340227806843
H      1.410257200703    -0.468920226609     3.503247292169
C      1.899896655348     1.380601114841     2.561333613218
H      1.120503876536     1.937383744962     3.062096428374
C      2.691613895714     2.153214219408     1.591995725301
O      3.572500963155     1.572853041231     0.896794579888
O      2.551066370349     3.552162390282     1.573877484850
C      3.276872572763     4.237444082374     0.544250920329
H      3.072826493392     5.326895744660     0.613500610566
H      4.372638060625     4.076913272931     0.656558212345
H      2.952105271372     3.890755037012    -0.463351643475
Pd    -0.852727569070    -0.195761146092     0.839368073679
C      0.416127964110     1.539736545230    -1.047884344009
O     -0.133262522281     1.577454863808     0.199671140331
O      0.956526926633     2.538404671889    -1.557284416545
C      0.338061329282     0.158764826842    -1.811976545688
H      1.370273377927    -0.125041168178    -2.068046761698
C     -0.473670308292     0.288368357011    -3.084107965742
H     -0.439415160035    -0.658382501790    -3.656802204604
H     -1.527453782418     0.521745658356    -2.826580077521
H     -0.062121085254     1.101283456968    -3.718576134615
N     -0.307205012161    -0.800741646387    -0.936765719414
C     -0.499038016716    -2.097230120740    -0.820053392115
O     -1.074283951689    -2.498710362880     0.282444052543
C     -0.049740681146    -3.054757867510    -1.840593347250
H     -0.600172485045    -2.854041580045    -2.772379845431
H      1.037594396262    -2.920290061550    -1.972420445888
H     -0.263156104426    -4.076512967573    -1.478952876289
N     -1.389874183512     0.510708892458     2.713145145929
C     -1.811059104981     1.810054164377     2.809060836117
C     -2.107844668109     2.342115084670     4.049782880251
C     -1.984419614598     1.576320579114     5.189274545060
C     -1.557800764084     0.276865652014     5.061038541419
C     -1.266797591633    -0.215441111326     3.764554576313
H     -1.914346302099     2.416968248880     1.917111011747
H     -2.435163406769     3.367097024772     4.118384044935
H     -2.215334963509     1.994514906421     6.165724012626
H     -1.439449369115    -0.349573192545     5.920194305485
O     -0.803750909299    -1.473032164920     3.623133590262
H     -0.733197098137    -2.011855705242     4.429463806927

