# STO-3G

title

0 1
C      0.335137241419     3.132073779851    -1.784408906990
C      1.588191721613     3.605084317331    -2.222989978312
C      1.859617720441     3.721406043006    -3.602088180750
C      0.873754859549     3.367064940803    -4.545733644031
C     -0.383980870885     2.902812704301    -4.107663035527
C     -0.653332277176     2.786146989552    -2.728992750591
H      0.109853681332     3.017485395487    -0.729835901205
H      2.351562379531     3.882914948236    -1.496911014549
H      2.827658518815     4.089041954332    -3.936710938984
H      1.081378010282     3.462026075029    -5.609410624183
H     -1.149795449712     2.642656186319    -4.835289857643
H     -1.613380424826     2.430260477728    -2.367329728501
C      0.878278191321     2.580682505268     1.769787811750
H      0.153230997196     3.390286385658     1.768125452544
H      1.622538708616     2.587511813412     0.978644227065
C      0.859380667637     1.562694688061     2.660983391867
H      1.574575308854     0.759140766963     2.563087283929
C     -0.115544922786     1.413475427171     3.752981273301
O     -1.049161409377     2.251320357118     3.891570169755
O     -0.030184773549     0.280571866986     4.580991511796
C     -0.980249337418     0.208559659296     5.653029838996
H     -0.810589505923    -0.726505285700     6.229969311099
H     -0.858966348291     1.071827068129     6.345903104666
H     -2.022023683958     0.191993495340     5.261468166396
Pd     0.031638447218    -0.003580002208     0.002417408149
C     -0.230941332269    -2.146767365706     1.889861296806
O      0.632037964776    -1.689207479156     0.944915109402
O      0.043729202959    -3.095889683300     2.647610722899
C     -1.631961680628    -1.421465108402     1.957906469752
H     -1.830200217208    -1.188953691649     3.013634613881
C     -2.728386019407    -2.329053628493     1.438030641146
H     -3.716912996537    -1.847377405719     1.564609847844
H     -2.557514729407    -2.533140018287     0.360679692749
H     -2.725953423020    -3.288301753919     1.997186803621
N     -1.563818109565    -0.240573383294     1.115948462679
C     -2.238709250244     0.861204138085     0.872165127974
O     -1.749270872774     1.657658349796    -0.036646842453
C     -3.462840197670     1.208436465596     1.610135594721
H     -4.230965528842     0.452011381810     1.389962023747
H     -3.213938026625     1.234155590441     2.684210251251
H     -3.798935012709     2.206940340397     1.277354466528
N      1.709720711888     0.214973654846    -1.206314734736
C      1.532055424638     0.101232002804    -2.558952401071
C      2.623389724789     0.156134597387    -3.404204657297
C      3.889817363911     0.345125264075    -2.897803960602
C      4.037583233274     0.472209268584    -1.538821912971
C      2.882730395300     0.395740460576    -0.718906520025
H      0.536138995792    -0.038700257821    -2.962887672259
H      2.471010632554     0.071800801372    -4.467310190566
H      4.748939047640     0.402628874112    -3.560885346681
H      5.000385202000     0.641731557504    -1.105265291706
O      3.019327586085     0.579215762052     0.610383552892
H      3.924113054132     0.516470179049     0.962404961876

