# STO-3G

title

0 1
C     -1.548544317524    -2.538477898342     0.383105729039
C     -2.053345519852    -3.593754552191    -0.403218222252
C     -2.719129178673    -4.673898223858     0.209271295579
C     -2.880725806913    -4.703168888957     1.608954227837
C     -2.377049486466    -3.648718936966     2.396175377262
C     -1.712913931357    -2.567960440251     1.782783190733
H     -1.031227080284    -1.709405456231    -0.090083819947
H     -1.927054459876    -3.567911219264    -1.482541530466
H     -3.105920596938    -5.487776340800    -0.399929934397
H     -3.392721867393    -5.538595507376     2.081372225729
H     -2.500069134108    -3.667108404658     3.476852411791
H     -1.327687277945    -1.754819025446     2.396121348843
C     -2.260644331662     0.788621531339    -0.013916910132
H     -2.621913984369    -0.026580707852     0.605939418230
H     -2.599704786971     0.773720149810    -1.047072423971
C     -1.405999172648     1.740872896647     0.431157356010
H     -1.048518594318     2.517889923490    -0.229402298933
C     -0.860002172230     1.801078157602     1.798658792324
O     -1.147381862437     0.901004657922     2.634087546054
O      0.052360250128     2.823081643121     2.120360095014
C      0.516329724840     2.842578735304     3.477943588631
H      1.216142648350     3.694415877646     3.617120268533
H     -0.334952634676     2.975890166350     4.183911549292
H      1.055774783510     1.900724977944     3.726825846568
Pd     0.494274024277     0.739185349428    -1.810516554949
C      1.971627947772    -1.526092544905    -0.792379423188
O      0.880100582243    -1.247721078311    -1.574730652329
O      2.494102441016    -2.643293221492    -0.732303178255
C      2.498506176177    -0.298308950925     0.054767209899
H      3.592477224223    -0.285041235791    -0.051561041965
C      2.143130409902    -0.470613881834     1.516302952610
H      2.543044443179     0.376116542125     2.107594511089
H      1.039499573314    -0.503872908643     1.629744919158
H      2.574775169477    -1.416808818074     1.905155331748
N      1.871510021059     0.913308256107    -0.435403461779
C      2.028916353723     2.216898799513    -0.448796608563
O      1.198647581563     2.881094789541    -1.221086427830
C      3.055475545277     2.900757080350     0.347743275843
H      2.991373867664     3.982754580808     0.136043988265
H      2.838337585502     2.708412011912     1.410322823688
H      4.043669561712     2.503197517854     0.060820370382
N     -0.975463700009     0.560693278363    -3.246993199936
C     -1.470849261374     1.701580290134    -3.818109119888
C     -2.517082076055     1.623272504642    -4.713944991789
C     -3.062001188142     0.402450200002    -5.049470658671
C     -2.538152421161    -0.724727463606    -4.472113588484
C     -1.467148509656    -0.606959764300    -3.562508429980
H     -1.049369447126     2.664842975156    -3.553184226370
H     -2.906904739470     2.526548726508    -5.154556042511
H     -3.885469349658     0.335137818115    -5.755634100529
H     -2.912480521123    -1.704742214886    -4.692906340162
O     -1.044105265356    -1.751826922721    -3.070073043183
H     -0.221522398552    -1.729492136232    -2.442667122235

