# STO-3G

title

0 1
C     -1.010275202557    -1.305345650653     2.036372885013
C     -0.371112562254    -2.482620859349     1.551062125234
C     -1.152277420701    -3.602075698047     1.143543669764
C     -2.546812963086    -3.552051273767     1.240908431366
C     -3.185787556093    -2.389116253122     1.749275804034
C     -2.429233249884    -1.279617216055     2.138896316611
H     -0.382984658956    -0.516795521207     2.443164749560
H      0.706300802883    -2.574017815581     1.640221564863
H     -0.656272568754    -4.505365644141     0.797955694443
H     -3.147062190692    -4.412393128954     0.953917621902
H     -4.269362724915    -2.367299934800     1.843782039323
H     -2.921002002533    -0.395261444475     2.536283659639
C      0.008330533719     2.352878339614     1.080318836295
H     -0.449724542692     2.985383625130     1.839656533789
H      0.472508198130     1.438744414939     1.443184954519
C      0.063828028068     2.710085864750    -0.230712205537
H      0.513858757451     2.042681518180    -0.953698183741
C     -0.472027144416     3.968259885924    -0.782992557271
O     -1.023248974427     4.806865927178    -0.019546992249
O     -0.347454221196     4.207663896648    -2.161926907168
C     -0.909444287622     5.437743744636    -2.639555495639
H     -0.751956723273     5.511288026452    -3.737199977393
H     -2.004829877257     5.474533361858    -2.441997960794
H     -0.415989689555     6.311848472617    -2.157356574372
Pd    -0.087874447671    -0.828371916944    -0.236231345883
C      1.855144235017    -0.386839092220    -2.290232698173
O      0.544873190311    -0.139354792805    -2.022015741806
O      2.375756790887    -0.135082892216    -3.391354094040
C      2.638535046165    -1.030156080630    -1.105065765360
H      3.645454331098    -0.593344063543    -1.127127117173
C      2.758819409259    -2.530129068116    -1.276293445410
H      3.339201191114    -2.958549243383    -0.433867501119
H      1.748398341583    -2.987811444573    -1.282680609963
H      3.275797053451    -2.766365876950    -2.230336192454
N      1.897954355512    -0.778234717173     0.141636583359
C      2.384068014268    -0.377145652256     1.326231823828
O      1.655423649301    -0.096471900475     2.332281203534
C      3.852695292582    -0.257934105992     1.490363191128
H      4.065357607283     0.012545177481     2.541098145657
H      4.312447581867    -1.232740348458     1.259765614193
H      4.222085385641     0.543367028864     0.827669783214
N     -2.018637854035    -0.787914711671    -0.987028733416
C     -2.333669776989    -1.832721462910    -1.813106724623
C     -3.585018568700    -1.901618806242    -2.392594344975
C     -4.516738937260    -0.913909626939    -2.157153584788
C     -4.164745756778     0.129481391673    -1.341258049844
C     -2.873697061299     0.158844894543    -0.776040293948
H     -1.605338007939    -2.614253042559    -1.995048030670
H     -3.827553264724    -2.730196049253    -3.036889321475
H     -5.502488626063    -0.957563213591    -2.612396858823
H     -4.834942819077     0.937837922084    -1.127780127463
O     -2.642539154801     1.228690680791    -0.025053491126
H     -1.700490030631     1.376235940036     0.264712932713

