# STO-3G

title

0 1
C     -0.970445760627    -1.233157844185     1.963681925882
C     -0.227675565616    -2.293642919844     1.369439698237
C     -0.878701285514    -3.513203073430     1.024353260270
C     -2.242442439460    -3.676361817754     1.289929806876
C     -2.979628735664    -2.627984438406     1.903483616277
C     -2.354660200037    -1.420622004394     2.231719327502
H     -0.418919626742    -0.366319985150     2.315942440788
H      0.854216670527    -2.221539956142     1.336841991236
H     -0.299362422169    -4.327267613977     0.596126705942
H     -2.738798225765    -4.614701091650     1.053189968730
H     -4.034914259598    -2.770785262748     2.126421308188
H     -2.922384980605    -0.626618476729     2.710847405068
C     -1.374657234608     2.637095130925     1.571551748270
H     -2.165079669425     3.325701316713     1.281742474194
H     -1.558800045765     2.034563149977     2.458842627932
C     -0.193316493236     2.530862739188     0.912552204726
H      0.545349944821     1.834802340708     1.275761234897
C      0.185819274826     3.307141585477    -0.280807271254
O     -0.608733269998     4.165707615286    -0.749733109158
O      1.461210171444     3.104031141492    -0.840460180363
C      1.720955285181     3.812124162445    -2.061569313650
H      2.737058072094     3.557589479528    -2.430917331844
H      0.988732168281     3.521200221702    -2.850666447343
H      1.670344493888     4.912834319237    -1.901055170824
Pd    -0.403006166881    -0.594043721122    -0.385401387116
C      1.096947159195     0.419481610755    -2.599041298157
O     -0.181381223738     0.347094716453    -2.146849110056
O      1.393036411658     0.903876646395    -3.707091073748
C      2.154239827936    -0.181156516469    -1.625683925428
H      3.047553669410     0.449504864694    -1.720357021856
C      2.517259037586    -1.597556529162    -2.021776520989
H      3.290132354723    -1.994724275406    -1.332971890984
H      1.617866729254    -2.243733942094    -1.959313947493
H      2.912235924247    -1.615793307869    -3.059477786393
N      1.586563635290    -0.226593841682    -0.264704444153
C      2.202995799007     0.103800481605     0.880707644280
O      1.621129928858     0.134831083750     2.014962760451
C      3.640762262117     0.465867891890     0.843936380854
H      3.984452220109     0.635331439944     1.880768492879
H      4.204926559292    -0.369225049774     0.398858459070
H      3.753919792032     1.401503002314     0.268465470346
N     -2.381371352799    -0.899753238865    -0.918451744686
C     -2.605700331419    -2.007367213443    -1.690426635916
C     -3.873273686537    -2.269167946416    -2.171499851950
C     -4.914882695719    -1.411225471624    -1.891636681384
C     -4.655603504789    -0.302461720256    -1.128987504952
C     -3.343720040421    -0.075206656753    -0.665899879152
H     -1.789839503536    -2.686421291141    -1.908306741845
H     -4.042787000487    -3.145319828356    -2.774807480132
H     -5.914554434397    -1.605759972689    -2.270686751145
H     -5.415057671342     0.413327286583    -0.886665624272
O     -3.212486409353     1.034372335787     0.048777572505
H     -2.289278226700     1.281382009165     0.324104838378

