# STO-3G

title

0 1
C      1.852918857803    -0.018621353277     2.187197216415
C      1.717342067008     0.848008070396     3.291203154839
C      2.713600012703     0.880053802125     4.287007116805
C      3.847214363978     0.049703502892     4.178811751518
C      3.981274155176    -0.817705124203     3.076367790394
C      2.983468774353    -0.853425962756     2.082003074965
H      1.085118738050    -0.031452086176     1.417887115837
H      0.839429652764     1.484489263670     3.368042377263
H      2.606407614301     1.545168802350     5.141095086829
H      4.616887601404     0.074835186649     4.947288376064
H      4.853244490710    -1.463038315231     2.994723733040
H      3.084842904738    -1.534401338187     1.239776760887
C     -0.010876488919    -2.332857022216     0.097779678963
H     -0.338279605737    -2.948720047026    -0.737056814041
H      0.794961321290    -1.640055020897    -0.123006411031
C     -0.596159971981    -2.366957762414     1.316759527044
H     -0.257236777484    -1.704349301370     2.099219399726
C     -1.721485178985    -3.243816842467     1.684568238446
O     -2.146253265842    -4.108671435637     0.871259245407
O     -2.303187004992    -3.089527659417     2.955860041955
C     -3.423456998228    -3.939646141979     3.237370169073
H     -3.797873814351    -3.728534238229     4.261876716284
H     -4.251413955193    -3.751540859659     2.516831489695
H     -3.127748549077    -5.012350632621     3.188662744676
Pd    -1.012912960762     0.883005318174    -0.230549882403
C      0.743611901188     0.861303367124    -2.525875390483
O     -0.312885195240     0.163002861541    -2.002896236172
O      1.180109475120     0.670184386560    -3.666657951500
C      1.391254278190     1.923961426831    -1.546866928293
H      1.456786625770     2.867732119560    -2.107469180012
C      2.784119253573     1.495167710682    -1.134072136134
H      3.236792176023     2.250561451635    -0.461573520981
H      2.732248460317     0.527786956855    -0.595897463164
H      3.429243947902     1.379339293581    -2.030278209457
N      0.567170942213     2.032224783009    -0.361389772554
C      0.344977617688     2.782193335281     0.690352142925
O     -0.679624355130     2.415938727544     1.435290707682
C      1.156905479425     3.953013989662     1.045580365735
H      1.640405806409     3.741977483585     2.014685732955
H      1.912322828258     4.129626661951     0.263790855172
H      0.481100160993     4.821487218609     1.132477073913
N     -2.721775289742    -0.263041365503    -0.104906151847
C     -3.529286062310    -0.101461889463     0.988183640186
C     -4.676657981027    -0.857709116083     1.113451610259
C     -5.020388278189    -1.772627421817     0.141384384500
C     -4.198327469138    -1.906829618840    -0.945934289410
C     -3.029025117113    -1.124632907991    -1.035608220941
H     -3.260835449554     0.614828660787     1.756506567969
H     -5.302133071294    -0.731416656201     1.981518052213
H     -5.918089137866    -2.377247827201     0.237419464981
H     -4.394288287922    -2.617056880294    -1.724320313357
O     -2.294888230092    -1.363566076765    -2.101285778322
H     -1.430895149471    -0.818842948997    -2.219710157540

