# STO-3G

title

0 1
C      0.797215657219     2.854573001269    -0.248282916906
C      2.173019008711     3.164566433396    -0.206434295512
C      2.672201773218     4.275717361740    -0.915083635371
C      1.794956662624     5.079907964189    -1.669177479666
C      0.421314744542     4.767043073993    -1.717315680219
C     -0.078246488711     3.654353435498    -1.011733652493
H      0.409317008639     1.997121434470     0.295967023524
H      2.860304966765     2.544455288443     0.368527386568
H      3.733989062511     4.510837863763    -0.876155180934
H      2.178453695702     5.940523173357    -2.213368108492
H     -0.255390633418     5.385974681755    -2.302792184443
H     -1.130214546550     3.389925228541    -1.055324323256
C      0.034820010055     0.072086544481     2.398498374939
H     -0.808624183167     0.744386759910     2.540651382509
H     -0.201605970685    -0.943397292683     2.102160175395
C      1.323383367719     0.448258061397     2.562748962353
H      2.116964868118    -0.263890758501     2.370091977559
C      1.755566002957     1.792547423025     2.973170532586
O      2.988953222536     2.039236958569     3.045008438909
O      0.793636174384     2.793759059890     3.204634827617
C      1.305014330515     4.119102345177     3.402045721958
H      0.458454069401     4.818991787799     3.568292946026
H      1.972478575832     4.158856653767     4.292456511938
H      1.863956303079     4.463538837765     2.501943749865
Pd    -0.703749630436    -0.650436329766    -0.667027347906
C     -1.695269146329    -2.893158062942     0.889182241093
O     -0.546894270696    -2.454125834545     0.279237584146
O     -1.729052297726    -3.902233594979     1.602257440654
C     -2.971881270897    -2.006117900176     0.615455067406
H     -3.445270388189    -1.826415638139     1.591735253343
C     -3.951271842704    -2.729850368299    -0.283345733553
H     -4.866946253502    -2.119842292618    -0.415583380446
H     -3.486475483308    -2.901830511218    -1.276483769641
H     -4.232356582357    -3.706411365541     0.164393393535
N     -2.556532738865    -0.786527928304    -0.044807083948
C     -2.961597283764     0.444859328777    -0.248126966050
O     -2.111820997137     1.232745519207    -0.857979656558
C     -4.273221861255     0.928658314764     0.203340901983
H     -5.051592850708     0.345311218248    -0.314812982633
H     -4.331525374147     0.790164756488     1.295446944363
H     -4.360207457864     1.999811527636    -0.055131377157
N      1.286766268156    -0.484925132596    -1.207535553278
C      1.644796723418     0.461348487762    -2.130779855262
C      2.976879467746     0.665466928322    -2.426650486936
C      3.955167673927    -0.068521936343    -1.793654317439
C      3.569319189047    -1.016477495958    -0.882555757155
C      2.197835639415    -1.207833648675    -0.617118686031
H      0.881154110728     1.055777721373    -2.619711114538
H      3.247608216618     1.428402713802    -3.138070131903
H      5.006331288602     0.099605947459    -2.011904140029
H      4.279725490752    -1.624385278437    -0.358639358139
O      1.946958941171    -2.145946101482     0.275215833197
H      0.963568690423    -2.407367650534     0.409331680155

