# STO-3G

title

0 1
C      0.006758888997     3.677189696899    -0.065097616258
C      1.410721138876     3.898250169413    -0.045827504183
C      2.074299493732     4.329006825037    -1.203159018353
C      1.348132253144     4.524545927660    -2.404028780106
C     -0.037491981459     4.299103919559    -2.438699544506
C     -0.718415678626     3.895977774136    -1.266520032013
H     -0.528835866529     3.505582703478     0.865222663488
H      1.966336346735     3.766575503538     0.878709662506
H      3.143433917076     4.527243006142    -1.175186697747
H      1.865813250376     4.863724756609    -3.298640554718
H     -0.596672535132     4.460289711471    -3.356556071570
H     -1.800334348364     3.804225157261    -1.255978404572
C     -0.187642818692     1.207804140039     2.736914149741
H     -0.056079250225     0.136482113193     2.606440480983
H     -1.205922172130     1.585252025265     2.704244737424
C      0.856041035084     2.049594783634     2.915622579090
H      0.684191323799     3.112332095625     3.025617835714
C      2.267499593313     1.633533821142     2.946493487130
O      3.157965857866     2.521459829011     3.020873976256
O      2.599907284469     0.272838818377     2.819943645630
C      3.999105336371    -0.024978201790     2.723790071000
H      4.133591851919    -1.123394453935     2.625360629655
H      4.443157262853     0.459984408171     1.824904749402
H      4.540401859048     0.313498849172     3.636187658766
Pd    -0.883322290941     1.353724640318    -0.264671992763
C     -3.575650750188     1.366968824446     0.739939779297
O     -2.589851137524     2.202844066691     0.343739929201
O     -4.633598713155     1.761611409047     1.263198419789
C     -3.308928189757    -0.153761617297     0.471710673802
H     -4.193291986431    -0.487295055673    -0.085892336778
C     -3.238813504584    -0.956501559323     1.753050850820
H     -3.087419096953    -2.029953883079     1.518523600682
H     -2.397091164082    -0.609235077907     2.380788642200
H     -4.184241214883    -0.845335274202     2.325306947583
N     -2.044755753112    -0.350443368140    -0.289481579440
C     -1.995944814116    -0.986442345545    -1.520430538179
O     -1.151219425157    -0.724347649614    -2.407504795535
C     -2.909959385214    -2.133942436348    -1.745431308297
H     -2.861373327233    -2.801405651807    -0.868696399041
H     -3.927942535484    -1.756997879136    -1.929579656362
H     -2.566098024493    -2.683089044032    -2.642298786092
N      0.881966931722     0.348723756092    -0.636753477523
C      1.820782793337     0.847102394250    -1.497562544005
C      3.044521611486     0.217735672692    -1.622973959173
C      3.314832396265    -0.932634992841    -0.913807396814
C      2.335559872215    -1.441373819862    -0.101272621980
C      1.099351388991    -0.769949815562    -0.010707628916
H      1.607999759903     1.737847977212    -2.071058718610
H      3.782557750304     0.627464096534    -2.292095555336
H      4.272824949044    -1.435360870217    -1.013329680135
H      2.462697015767    -2.348813420828     0.452057541094
O      0.179298230902    -1.376990046032     0.727470065064
H     -0.765427285449    -1.013684509966     0.498125205972

