# STO-3G

title

0 1
C      1.665457727967    -2.512906052877     2.115982283723
C      2.891547212031    -2.694431792023     1.418645168770
C      3.256088206173    -3.981740639858     0.952540555069
C      2.411380707810    -5.077114415768     1.189679778003
C      1.188243688688    -4.900894746440     1.885186105388
C      0.819413925777    -3.632032832106     2.347090297520
H      1.449781413168    -1.563998413598     2.598202391493
H      3.566862187437    -1.851333264673     1.315093670760
H      4.203135104271    -4.119378496491     0.437429227261
H      2.696005525541    -6.069950244871     0.848533722071
H      0.538904669934    -5.754507358809     2.064448049758
H     -0.114235401495    -3.496699183048     2.886394315602
C     -1.096854509499    -0.580283279666     2.758827199813
H     -0.571621062265    -0.927420921400     3.646828637501
H     -1.818959911742    -1.263580256767     2.319670297901
C     -0.855610674796     0.621567424046     2.186168278524
H     -1.398823674587     0.903569208718     1.295045901188
C      0.156085727907     1.584719400583     2.644789011205
O      0.259421072029     2.688390452858     2.043209610527
O      0.967987577333     1.273706738214     3.751432823114
C      2.081723624637     2.150658978887     3.968785422596
H      2.658247841215     1.801625715477     4.851730665911
H      2.764188928146     2.143893364901     3.087163881148
H      1.736989924148     3.190996528763     4.164664210356
Pd     1.041155093685    -1.177389925324     0.169938534412
C      2.769385809754     1.024725310757     0.025261359826
O      2.298652015079     0.165876562150     0.951394656811
O      3.885992945907     1.571859899983     0.104984478812
C      1.798477081543     1.292939945676    -1.184542602532
H      2.350729052717     1.016447676117    -2.094498698253
C      1.469335020105     2.778782740318    -1.238818964101
H      1.123035488460     3.074192062222    -2.246607116080
H      0.708257936941     3.026038410219    -0.470055655350
H      2.376180606809     3.386278831837    -1.032547367517
N      0.584277966650     0.443325148432    -1.015047239471
C     -0.669499078489     0.593926407279    -1.414896563098
O     -1.674708980845    -0.051126358570    -0.934279037656
C     -1.003813593414     1.501069419822    -2.532519986171
H     -1.123521202362     2.520320188280    -2.131736189795
H     -0.214723003632     1.427989233446    -3.298722992797
H     -1.964946772781     1.180452133682    -2.976177296767
N     -0.008848084817    -2.723864968345    -0.712455613397
C      0.777560723308    -3.634046529428    -1.365475711164
C      0.271880185539    -4.875306115264    -1.695097353065
C     -1.022645961314    -5.212921505846    -1.366567906330
C     -1.799086377961    -4.277948134781    -0.734660997724
C     -1.256856272003    -3.008869445555    -0.437369875250
H      1.803541399735    -3.383657602152    -1.608046354982
H      0.904076570962    -5.588726252297    -2.196784971543
H     -1.422317890075    -6.192560606573    -1.614340652275
H     -2.821446244548    -4.465052683805    -0.475043716051
O     -2.080022240197    -2.155752357928     0.113260985923
H     -1.842109949304    -1.122182036730    -0.218031202482

