# STO-3G

title

0 1
C     -2.949068683203    -2.572893138792     0.165781312039
C     -3.246164023769    -3.923507304616     0.437176713039
C     -4.249072602676    -4.588714665768    -0.295229554396
C     -4.956497945954    -3.903330782028    -1.303535643708
C     -4.662658967834    -2.552295658777    -1.574574576512
C     -3.661260446803    -1.887364613773    -0.839169592425
H     -2.160093303643    -2.079824777562     0.723792367985
H     -2.690698127880    -4.450559723003     1.209191593644
H     -4.477295208556    -5.630545432216    -0.082232388163
H     -5.731178661924    -4.415377394112    -1.869840164972
H     -5.210716515081    -2.020004913594    -2.348745036842
H     -3.446300886998    -0.841495816005    -1.050984524191
C     -1.364823109215     0.449405565321     1.063439611956
H     -1.871177050790    -0.061997242133     0.252504047077
H     -1.394131716631    -0.047550086404     2.031310413605
C     -0.721026352967     1.626000928328     0.888984750925
H     -0.213022993217     2.088577083016     1.724813393900
C     -0.597159703743     2.330464327189    -0.396789220981
O     -1.225956994092     1.907621580030    -1.406593647994
O      0.161706248015     3.512211295429    -0.447853400647
C      0.410026718112     4.031798087682    -1.761812229487
H      1.029067545899     4.950755958587    -1.684552689789
H      0.969998246643     3.290938243494    -2.378746400297
H     -0.543288692108     4.294270115018    -2.273550434291
Pd     1.294299982810    -0.873782448620     0.119879737589
C      1.547050483069     0.195844489827    -2.506932323382
O      1.824939820868     0.548505383765    -1.217436482842
O      1.888245236915     0.899741670719    -3.473256006220
C      0.765349489861    -1.174229073034    -2.731970027738
H      1.366903664473    -1.772238252285    -3.430883457859
C     -0.604685582272    -0.938978544680    -3.330548613646
H     -1.091790460862    -1.905308908509    -3.565325773811
H     -1.234170218947    -0.379780879643    -2.608353941493
H     -0.515681559213    -0.346883177017    -4.265248239287
N      0.612366401044    -1.817472442757    -1.441305495613
C      0.210084051021    -2.908302008349    -0.848970737785
O      0.347635890713    -2.937605106186     0.471413395323
C     -0.344006526577    -4.055577437514    -1.575070410238
H     -1.295714322631    -3.741613851528    -2.036498642891
H      0.387351745204    -4.363762382921    -2.339932425035
H     -0.528595363481    -4.874610481669    -0.857122726245
N      1.881202886337    -0.081011513763     1.922806823229
C      2.654403854231     1.043185415568     2.022283913260
C      2.933235895522     1.569140194014     3.268517222520
C      2.445019905182     0.966315134480     4.409442652981
C      1.675446183511    -0.161619794261     4.273161476074
C      1.415563118708    -0.665088027494     2.983734320560
H      3.035116207999     1.521297367297     1.126667110134
H      3.538089090251     2.458313053897     3.343155096228
H      2.662501683068     1.376882838787     5.391953311522
H      1.262312332591    -0.676292230484     5.117607201777
O      0.637097565923    -1.744989403880     2.961034438352
H      0.475095981118    -2.185150964035     2.075040868820

