# STO-3G

title

0 1
C      2.308958313114     0.958942262763    -1.312696365381
C      2.305810843501     0.771977527173    -2.709377738814
C      3.381986211813     0.110493324603    -3.332979940401
C      4.462176372067    -0.362227200914    -2.559810326299
C      4.466126433178    -0.171239288545    -1.163409654597
C      3.389169709769     0.489507048819    -0.539506238906
H      1.476660337469     1.472487084263    -0.838254497944
H      1.469513275840     1.141125029845    -3.298215323312
H      3.382293731830    -0.029921465022    -4.411696311425
H      5.294273565427    -0.871111141173    -3.041379678833
H      5.298659892886    -0.535953649393    -0.566357166904
H      3.386721544770     0.627930740652     0.538923893660
C     -3.140829668993     0.813734799352     0.825511157900
H     -3.079686157053     1.449529872033     1.706660658106
H     -3.267211251311     1.320772941135    -0.126607663361
C     -3.005451476573    -0.534350508851     0.879817854710
H     -3.041381849438    -1.109648286991    -0.034823196412
C     -2.781883793473    -1.321571203489     2.103369348956
O     -2.680151240902    -0.742403857159     3.218693873551
O     -2.613290151821    -2.710951965090     1.977756187389
C     -2.157151283418    -3.393266933977     3.154644966330
H     -2.027214255439    -4.473501734500     2.928258126775
H     -1.168247862356    -2.996638890980     3.482572192375
H     -2.892084822614    -3.291311618026     3.984453066078
Pd    -0.159947828359    -0.173778666185     0.494865059108
C      0.536169306816    -2.909590501418     0.903186413110
O      0.549117766530    -1.731786751306     1.587805181036
O      0.783162721080    -4.000584200454     1.447078537858
C      0.210727137762    -2.825430213210    -0.647168648746
H     -0.501651743725    -3.629429120818    -0.877057781687
C      1.470178550856    -3.012699638738    -1.468516224646
H      1.232659557731    -2.998102551245    -2.550165721206
H      2.181741667149    -2.188701280213    -1.249557227411
H      1.947889027391    -3.982972727336    -1.218354781321
N     -0.323094786028    -1.501267451251    -0.919788261337
C     -0.816875781171    -0.768865000027    -1.885631070629
O     -1.025189223030     0.507177041931    -1.629929951638
C     -1.175211442244    -1.317116147088    -3.200671835215
H     -0.529470215926    -0.832955083568    -3.952503297384
H     -1.025713114785    -2.408899599913    -3.200215781231
H     -2.235930592374    -1.077994032221    -3.391561219687
N     -0.033450315647     1.424881453683     1.775577635770
C      0.345811161006     1.315658844175     3.085496030360
C      0.418365746003     2.450618132005     3.869753344758
C      0.099764052610     3.686568089950     3.346391167497
C     -0.289573936535     3.758600169519     2.032393866949
C     -0.349809375357     2.577145648552     1.268777275824
H      0.593867631326     0.344761181039     3.499497453158
H      0.717373208655     2.360404851628     4.901200467419
H      0.151411049705     4.580757436717     3.961826583416
H     -0.557155742984     4.685615674132     1.566350063911
O     -0.758320269334     2.752953380196     0.013341529444
H     -0.871029871038     1.944303034903    -0.571931287883

