# STO-3G

title

0 1
C      2.072913671835     1.373261830870    -1.413039920697
C      1.886290645081     0.801082157102    -2.702004778237
C      2.796573023141    -0.142415238667    -3.192033430047
C      3.913639095537    -0.524840181910    -2.410159728056
C      4.119634253655     0.038072145083    -1.140884027308
C      3.207440681355     0.997012195606    -0.640586708334
H      1.448091931876     2.207781358019    -1.111776918469
H      1.023833079693     1.099485793597    -3.289606264966
H      2.649786417176    -0.577638555428    -4.176956827319
H      4.620006675622    -1.254107475487    -2.800125047949
H      4.984600519966    -0.245901223837    -0.547931597612
H      3.413566750914     1.502569882615     0.297836624252
C     -2.674363365320     0.980617219537     2.024507766700
H     -2.882803405347     0.985182115096     3.090636017422
H     -2.505428236294     1.946039697274     1.555181748356
C     -2.598094485583    -0.150797984076     1.289807590782
H     -2.356452870032    -0.084627190257     0.238727897572
C     -2.811850513229    -1.510239223833     1.809684457644
O     -3.267242849608    -1.675928757969     2.974269360024
O     -2.689022472009    -2.591276119021     0.913789506741
C     -2.921950268528    -3.890285407578     1.477831110882
H     -2.770704175431    -4.667526167538     0.699430824122
H     -2.210095484042    -4.093082965399     2.311572177732
H     -3.964658184242    -3.974624829665     1.859630624518
Pd     0.971271327236     0.002862550990     0.310286786572
C      0.437954678225    -2.664257082286     1.185907034404
O      0.407622658628    -1.395430749734     1.677903306877
O      0.411925111211    -3.673657597855     1.913738626580
C      0.489492829347    -2.765335046278    -0.388078478331
H     -0.282011734424    -3.487213787220    -0.690711088054
C      1.833939871603    -3.252855909976    -0.874266821878
H      1.827951268515    -3.312094941862    -1.982033621580
H      2.622997706606    -2.538272530923    -0.563206126594
H      2.054217816370    -4.255755916344    -0.452832986294
N      0.293047358616    -1.418245826009    -0.915364518938
C     -0.711072656449    -0.909323282880    -1.616151381039
O     -0.983732802795     0.358741109241    -1.638170132562
C     -1.544473566550    -1.805825961837    -2.440055792408
H     -2.240919484969    -1.191173028067    -3.038342404993
H     -0.875301390236    -2.377897090202    -3.104363290366
H     -2.118618070923    -2.470629109535    -1.771465278034
N      0.808215869820     1.675951036605     1.520654605047
C      1.356287581928     1.849363110970     2.760931678073
C      1.076490696203     2.994865940101     3.478092789637
C      0.236182591216     3.957498233038     2.961108326976
C     -0.325842709536     3.739829078128     1.729200159220
C     -0.032877518006     2.547844626240     1.033647805638
H      2.028253285174     1.100591806793     3.164420572233
H      1.519088921216     3.131299421664     4.451325137330
H      0.014964375159     4.861695389283     3.522091287674
H     -1.002392011634     4.440376278433     1.281508417200
O     -0.679284153785     2.421328413653    -0.113282369798
H     -0.724973911028     1.529888629554    -0.666005886406

