# STO-3G

title

0 1
C      1.737503767194     2.267994996833    -2.388943406893
C      0.609356027007     2.471571610709    -3.211698712137
C      0.762677307327     3.102678822805    -4.462357480972
C      2.036511894502     3.526930337590    -4.890899533800
C      3.162613263443     3.318359878857    -4.069527211855
C      3.012098317274     2.687815676009    -2.818366629614
H      1.627660557482     1.769353299383    -1.429671154543
H     -0.372941840039     2.127227733365    -2.896584096992
H     -0.106491020412     3.259696756069    -5.096579061662
H      2.151473140578     4.015593977162    -5.855999374020
H      4.146401816073     3.644898354295    -4.399537384181
H      3.880500202262     2.526022013772    -2.182317460497
C      0.021556171125     2.213286464308     0.779188511546
H     -0.963382581792     2.322192938303     1.223841256543
H      0.116328386514     2.531203152868    -0.252232823154
C      1.070572282643     1.712965671229     1.474002118705
H      2.035901218578     1.590748420866     0.998504254409
C      1.004515108464     1.269064068296     2.877355300183
O     -0.081190180421     1.355582400815     3.517480319072
O      2.177131962099     0.794376256192     3.489764844352
C      2.034282973480     0.321842915374     4.836184856032
H      3.020005840168    -0.032263370530     5.207511327309
H      1.681763221763     1.137700935435     5.507145912489
H      1.319981876178    -0.531463931796     4.880299977535
Pd    -0.823687214475    -0.404127774038    -0.700970789557
C     -3.242329212493     0.600044101258    -1.818821387368
O     -1.951255213971     0.357872263603    -2.195442260898
O     -4.113182507760     0.957789409006    -2.628605627477
C     -3.594016692444     0.408931187120    -0.278146698854
H     -4.416826469829    -0.318459963469    -0.226713293567
C     -4.043654286372     1.711513348855     0.348221908344
H     -4.328457724808     1.548219041456     1.406060288625
H     -3.221645514436     2.452947472375     0.298920313350
H     -4.923701720901     2.110767529407    -0.198539655760
N     -2.401655344995    -0.068380541638     0.396253673234
C     -1.964114904466    -0.564620091639     1.525811165687
O     -0.722822283132    -1.020790669532     1.521831436317
C     -2.774658237357    -0.607961842341     2.747358984135
H     -2.194574489251    -1.128961835769     3.529670949228
H     -2.961853360288     0.432422506550     3.060926920608
H     -3.714530313726    -1.142992652435     2.530497002595
N      0.957496697301    -0.896157273523    -1.604870350497
C      1.149690149439    -0.848637050133    -2.959461962632
C      2.390687565441    -1.151132804546    -3.483537320466
C      3.436635111091    -1.496551327734    -2.654641954304
C      3.208533051627    -1.545071753442    -1.302685769687
C      1.925158527435    -1.239388370834    -0.809522611482
H      0.333702338184    -0.563305486640    -3.613804852857
H      2.540788306092    -1.092615855193    -4.549168760078
H      4.417444866477    -1.724770468043    -3.063031164352
H      3.976218795039    -1.809575759758    -0.603299528989
O      1.817372463502    -1.303919904438     0.514185893628
H      0.909430688191    -1.175063951508     0.917721565902

