# STO-3G

title

0 1
C      0.574816416611     1.628208475120     1.105399044551
C      0.506338769188     0.522605840451     1.978923088695
C      1.460283903962     0.370504521606     3.006007879593
C      2.484044769456     1.326484281416     3.162263324931
C      2.544667352173     2.440070803846     2.298683016635
C      1.588117357196     2.592408772215     1.274979782826
H     -0.159761921185     1.715963472141     0.312778426599
H     -0.296832191314    -0.198341289268     1.855400985661
H      1.402409252557    -0.480217875809     3.681070003570
H      3.221962576124     1.212888908396     3.953189253248
H      3.329776595540     3.182897236389     2.422556778193
H      1.642364172663     3.448462234463     0.605863434756
C     -0.073321421408     1.021056983119    -3.370613404165
H      0.502901009808     1.147978817509    -4.285195813400
H     -0.242767055148    -0.000592596312    -3.041477928268
C     -0.593176981452     2.057178014810    -2.661198680206
H     -1.150183702302     1.836208893354    -1.762359306142
C     -0.459552933542     3.479948020262    -3.020312525399
O      0.140233941149     3.808392340103    -4.079209624738
O     -1.001399916879     4.446759291517    -2.155940194249
C     -0.808164651418     5.813956658124    -2.544779034017
H     -1.274626275711     6.481278793069    -1.788376948677
H      0.276850061326     6.058905733131    -2.602751714049
H     -1.286232101191     6.016757997237    -3.530005964904
Pd     0.977353061066    -1.025521683642    -0.960129195582
C      0.988227519033    -3.836985815655    -1.488000919314
O      1.851089215284    -2.800097106250    -1.271755200313
O      1.380600092027    -5.013583648605    -1.543931443745
C     -0.520434100046    -3.444487649471    -1.675018612696
H     -1.110732939198    -4.142800440410    -1.064667555634
C     -0.935067275070    -3.577132361992    -3.126625949171
H     -2.004907857287    -3.314005585828    -3.246785305958
H     -0.324640946889    -2.892339161940    -3.750950916044
H     -0.779997381229    -4.620839124603    -3.472905362571
N     -0.681341987655    -2.055210023961    -1.273490956502
C     -1.673573375284    -1.260828559561    -0.923131806989
O     -1.387422072599    -0.036881275155    -0.609937324118
C     -3.073509366777    -1.719143260664    -0.872451198609
H     -3.649873774015    -1.107552793933    -1.587420032427
H     -3.141213336245    -2.786353816502    -1.132273509150
H     -3.445228855752    -1.552097135599     0.153786853124
N      2.813051609858    -0.125771856689    -0.607718732256
C      3.623493479171    -0.834869446541     0.240214951271
C      4.883751892025    -0.359737736263     0.547187666556
C      5.335106956770     0.822452103619     0.002939356602
C      4.504188405762     1.505407593225    -0.846459317035
C      3.225889797135     0.983369694036    -1.127045663825
H      3.271277103474    -1.760060394944     0.680963385274
H      5.511940921911    -0.922088964338     1.217529410427
H      6.324793732769     1.202784056255     0.240482318132
H      4.791148176995     2.431077747897    -1.302725812647
O      2.507646009720     1.741162248705    -1.951447245317
H      1.603803510650     1.404726452940    -2.186997581168

