# STO-3G

title

0 1
C      0.390742661288     1.320255861082     0.928925354744
C      0.307909458907     0.170889959223     1.761206515296
C      1.256527767293    -0.025745903472     2.800162465091
C      2.258102274443     0.928636507767     3.020417922061
C      2.324490487181     2.092893838430     2.212337608265
C      1.402689695228     2.285779089600     1.176470448833
H     -0.399839866647     1.479931492091     0.205181536323
H     -0.552166109247    -0.484467375458     1.675127189191
H      1.179894547889    -0.901134604924     3.439806103647
H      2.974433378220     0.792419387156     3.827450447947
H      3.090881396415     2.840670242525     2.404522139823
H      1.452218661238     3.182324991918     0.563601069008
C      0.027668875593     0.999736447477    -3.084893083975
H      0.701204257517     1.014133478438    -3.940378646358
H     -0.155626485146     0.035604740919    -2.621103552497
C     -0.600953686182     2.103651776558    -2.604109429554
H     -1.265866500003     1.986645914213    -1.760207457772
C     -0.470577774226     3.462338868019    -3.158828996666
O      0.252853023926     3.662029648075    -4.171585250933
O     -1.146158017602     4.518266006748    -2.523015663129
C     -0.955288229302     5.819627357603    -3.095711539925
H     -1.533617508852     6.567411391719    -2.511475564147
H      0.119382975786     6.110853929883    -3.066418447677
H     -1.316765516746     5.845534145161    -4.148802490936
Pd     1.090484862114    -0.745567533559    -0.482522037196
C      1.078718968822    -3.443474380102    -1.383427351258
O      1.908495856824    -2.370164108331    -1.321475537685
O      1.505359495772    -4.608426356967    -1.476929470558
C     -0.439258837197    -3.102502793608    -1.388289366482
H     -0.927984197023    -3.895793473951    -0.805414319355
C     -0.956675305491    -3.142116642822    -2.818474871804
H     -2.050026961366    -2.976118394479    -2.855082780758
H     -0.453368544981    -2.356232544357    -3.418507806694
H     -0.741554417816    -4.132564853651    -3.273374021389
N     -0.650233100915    -1.748303459963    -0.828890847916
C     -1.810539610482    -1.089331217827    -0.652590576856
O     -1.873395614467     0.169441526141    -0.468422580243
C     -3.098922169960    -1.824884304922    -0.604291931611
H     -3.695291190379    -1.512085491564    -1.478234642506
H     -2.955587523475    -2.913382292152    -0.590749277882
H     -3.618470939810    -1.521268425858     0.322305556930
N      3.014471140142     0.005836042035    -0.399905963689
C      3.912045075970    -0.760519260959     0.294437577586
C      5.241449597063    -0.388336216696     0.342369783630
C      5.673518634548     0.741412312772    -0.318172762636
C      4.752874812592     1.476461483489    -1.019503867170
C      3.408121023770     1.055785015868    -1.041754005017
H      3.574052927321    -1.645612962488     0.820925592921
H      5.941053901926    -0.993625295879     0.894353108123
H      6.718425328967     1.038200152098    -0.288873855519
H      5.022742680458     2.358614279472    -1.564436066255
O      2.611586964631     1.837314678156    -1.766445945560
H      1.678596189122     1.518875506005    -1.894100956919

