# STO-3G

title

0 1
C      0.489203955006     2.614461524473     0.946916202113
C     -0.208191546662     2.011062714449     2.012775693471
C     -1.166033163170     2.746122124837     2.738651554213
C     -1.430141176703     4.088863773531     2.400764005587
C     -0.729138770036     4.696273785470     1.340275567314
C      0.230970117071     3.960041088374     0.617195839522
H      1.212754342516     2.040185105662     0.376827463353
H      0.007250646790     0.976422626421     2.265539806439
H     -1.698795731824     2.278663512705     3.564176482930
H     -2.168714645101     4.657835955386     2.961377457936
H     -0.925990276394     5.733733772100     1.078147042992
H      0.768328186502     4.432402492496    -0.203761023960
C      2.120896247207     1.708469558928    -2.549218480491
H      2.357436175545     2.769006629416    -2.573114280448
H      2.964831106754     1.025487343358    -2.607943585276
C      0.862179630791     1.232972013162    -2.421246741607
H      0.703563619735     0.166700594001    -2.355288161655
C     -0.347371736966     2.058594945817    -2.285137181940
O     -0.291540065750     3.302270289854    -2.484885645763
O     -1.550294109266     1.427433339730    -1.918187395195
C     -2.636084438662     2.306561846319    -1.592454819798
H     -3.528869942945     1.706511320343    -1.315820740002
H     -2.370582364857     2.954339089112    -0.724763765279
H     -2.903643236904     2.947462214250    -2.463279663658
Pd     2.006701291986    -1.716299602860    -1.220478817414
C      0.671911524814    -3.617574191608    -2.852282410649
O      1.915913450835    -3.065790146401    -2.708266150834
O      0.453193735861    -4.565062995541    -3.622633360077
C     -0.506585399577    -2.974179029648    -1.997845840696
H     -1.030960048103    -3.797225254258    -1.493479360434
C     -1.479246067761    -2.231120823203    -2.890579860091
H     -2.299954963287    -1.793524271944    -2.288590380144
H     -0.951632738269    -1.412295564931    -3.420821285329
H     -1.914141795165    -2.926317032760    -3.639053513934
N      0.085941510282    -2.034110597488    -1.066577397307
C     -0.158225290296    -1.262733794935    -0.041021257212
O      0.874464008805    -0.575871190727     0.423982005631
C     -1.478906087495    -1.127631568383     0.583156072181
H     -1.805209014637    -0.081616592215     0.444605274766
H     -2.185923800723    -1.822443255962     0.103124624246
H     -1.376505033778    -1.362233397365     1.656624290403
N      3.979509119962    -1.146218011198    -1.227944404567
C      4.910998640732    -1.741179650931    -2.035002535480
C      6.212865510885    -1.280659373223    -2.027430478742
C      6.581615162417    -0.232305784262    -1.210287690209
C      5.624210811486     0.338939661681    -0.410934015207
C      4.308566002915    -0.161771096111    -0.446037351453
H      4.624925859511    -2.564341898767    -2.679995754046
H      6.943259257065    -1.750156348725    -2.666407264414
H      7.605495923232     0.132209197037    -1.200545561378
H      5.843758872414     1.155828978128     0.247840347700
O      3.461648907532     0.469890307977     0.358973253953
H      2.517384362744     0.144046830201     0.391454560000

