# STO-3G

title

0 1
C      0.791723912588     2.965190962772    -0.621208260712
C      2.098344706527     3.386803531323    -0.941459294188
C      2.298383538276     4.424321656904    -1.874246224468
C      1.189195978279     5.041727484488    -2.485883629689
C     -0.117478874927     4.621124817052    -2.163944652422
C     -0.318827165964     3.582009621670    -1.233957466061
H      0.633747776191     2.156093589069     0.085811605237
H      2.957658492620     2.911458258399    -0.470252279219
H      3.307738272898     4.749434265823    -2.117624160917
H      1.342647889041     5.845446166095    -3.203001045712
H     -0.972714654244     5.100793106249    -2.635307406438
H     -1.316466351040     3.235113273589    -0.983669167656
C      2.174878716852     0.516878375861     1.749745015405
H      2.494309189604     1.487762893971     1.380531235720
H      2.756241741396    -0.338614274221     1.416189671762
C      1.098497401440     0.352551211966     2.551629254561
H      0.814711289912    -0.640640771172     2.870430845482
C      0.226216566539     1.440505388313     3.017697330554
O     -0.832606939941     1.146348862071     3.635883859970
O      0.520019735324     2.768677234335     2.662440684154
C     -0.511299131571     3.732237389111     2.912643688292
H     -0.162794787063     4.734154097913     2.580279605780
H     -1.430858312890     3.481404354675     2.336682464641
H     -0.749917899743     3.786479545392     3.998816240257
Pd    -0.410696069773    -0.609988191671    -0.304221557610
C     -0.518542973243    -2.690242083705     1.713400730101
O      0.241319480075    -2.294199922930     0.645026238983
O     -0.162362381695    -3.583608119718     2.491668085945
C     -1.884116981376    -1.916004889769     1.876659320367
H     -1.956348064756    -1.620006153734     2.933579230995
C     -3.055758563147    -2.809927574457     1.530984801894
H     -4.007939453075    -2.274989502314     1.717404493140
H     -3.003392335822    -3.091416802604     0.458856351539
H     -3.033240361911    -3.728388580309     2.154569769874
N     -1.883589052530    -0.783399439706     0.973073771019
C     -2.461867001442     0.387719954022     0.841755819793
O     -1.975859205850     1.160964552521    -0.097137632327
C     -3.581363628892     0.819506860074     1.689878033821
H     -4.424975444392     0.131392559274     1.522267242612
H     -3.244828905430     0.786259938613     2.740198809736
H     -3.860585621408     1.850012948716     1.407391677308
N      1.203805151991    -0.409607847266    -1.583799963814
C      1.129085036052     0.515132281090    -2.591321314675
C      2.227502399199     0.751940887348    -3.391838212847
C      3.402949927083     0.064001917673    -3.189649060308
C      3.447614945544    -0.864841666868    -2.183061519656
C      2.302754279602    -1.085803276709    -1.389489701790
H      0.208560724752     1.063870422916    -2.754233416290
H      2.162252510539     1.497486151015    -4.167491482145
H      4.272460660417     0.252314906894    -3.813660935688
H      4.328304817677    -1.440327162296    -1.978339166074
O      2.465744756712    -1.996895206165    -0.451169990974
H      1.636224608963    -2.249239030566     0.107149406219

