# STO-3G

title

0 1
C      0.149385980074     1.036835781749     1.069432307744
C      0.300518528631    -0.107995189262     1.899225215520
C      1.347783314131    -0.162515778427     2.854967792429
C      2.215081322559     0.928554343313     3.001920681911
C      2.050381464698     2.085867686712     2.198033362387
C      1.030853932485     2.138989069827     1.240293363108
H     -0.734976849397     1.085383154507     0.442983433287
H     -0.463080363228    -0.877634762646     1.869016415945
H      1.449666026828    -1.036515963910     3.492928768842
H      3.004995602547     0.901716571990     3.749297706343
H      2.714788396476     2.936550596938     2.333032437413
H      0.903516604187     3.033223164196     0.635080410306
C     -0.754669651229     1.180383985778    -2.482855368036
H     -0.400930492396     0.829492036072    -3.450636054755
H     -1.140537625569     0.432378204826    -1.799062504865
C     -0.763650436059     2.493006621425    -2.136462902569
H     -1.130387867863     2.781501506042    -1.160076031432
C     -0.320286463621     3.601909924474    -2.999971027958
O      0.070586658552     3.366541197902    -4.175054522956
O     -0.353789802837     4.909894514906    -2.486458757730
C      0.118563977222     5.939637132380    -3.366489233492
H      0.047750720980     6.923333961028    -2.854377675628
H      1.184029768450     5.766361071759    -3.641367082843
H     -0.499446045869     5.983924191263    -4.292003293044
Pd     1.000486718480    -0.816776153932    -0.475372707289
C      1.153626525981    -3.398109294407    -1.702307992666
O      1.940047456717    -2.333178596524    -1.390583504757
O      1.625023905200    -4.520494179189    -1.956283324026
C     -0.358250063708    -3.063817949388    -1.773728477065
H     -0.904272738024    -3.980652458059    -1.513656994325
C     -0.722808404964    -2.655894711670    -3.191481219950
H     -1.793956161339    -2.386015230835    -3.264500834237
H     -0.115887405866    -1.777107325226    -3.492432881687
H     -0.516540933986    -3.492181479194    -3.892696797692
N     -0.655419854731    -1.928140277316    -0.873218927554
C     -1.870238494280    -1.589125449481    -0.403261111671
O     -2.130434947903    -0.462094430424     0.127733471188
C     -2.960651090896    -2.596017178984    -0.439789846263
H     -3.198017351018    -2.846975533257    -1.484365396423
H     -2.630836987196    -3.481289419035     0.129276019270
H     -3.857040865299    -2.163886449246     0.043402992036
N      2.866332097822     0.070618384475    -0.397556477571
C      3.850479853183    -0.631217533067     0.245157952586
C      5.149206205138    -0.159618544085     0.233307260181
C      5.462999920667     1.003770329431    -0.436559695636
C      4.456737893566     1.672767410661    -1.085160188893
C      3.148858617436     1.151093346860    -1.045647592226
H      3.605124954285    -1.543304111799     0.776863008615
H      5.918300625252    -0.714469500978     0.744302976487
H      6.483180955572     1.377464707006    -0.455216055781
H      4.632604054681     2.575150204091    -1.634966248418
O      2.253402577408     1.869611202921    -1.720197537614
H      1.337212240048     1.487359410852    -1.741646761841

