# STO-3G

title

0 1
C      3.158644258352    -1.584767077787     0.340510638098
C      3.152083593472    -1.516239775746     1.761073235590
C      4.171522787144    -0.797312815286     2.437502512046
C      5.185725812079    -0.165268605260     1.703754861264
C      5.196121949505    -0.234864298747     0.287131210880
C      4.194845214483    -0.941406623427    -0.389908471661
H      2.448361695341    -2.233962452987    -0.157330761734
H      2.416346683404    -2.089960510398     2.317310901849
H      4.172673617203    -0.760862409568     3.523358664795
H      5.978223355399     0.371630894152     2.219839684940
H      5.989642667512     0.252593428105    -0.274414885184
H      4.214398405553    -1.008742495962    -1.476290263864
C      1.035329575566    -1.611644363701    -2.416536663725
H      2.008140329285    -2.031630415792    -2.172028665848
H      0.217788181101    -1.937496795741    -1.782565278456
C      0.866131651336    -0.759947228032    -3.456790820575
H     -0.112322267506    -0.362004282718    -3.686148230369
C      1.950662830786    -0.290607563519    -4.338565955093
O      3.138585435046    -0.656563222943    -4.123135653941
O      1.628346665830     0.558008156308    -5.411800989943
C      2.734388587912     1.009355123770    -6.205968497620
H      2.360301444218     1.671320749214    -7.016365026810
H      3.453975151434     1.591120655032    -5.585956526263
H      3.262219442407     0.148423785035    -6.675735714464
Pd     1.248600616518    -0.127015009438     0.794148777560
C     -1.115744212174    -1.736842244162     0.637783943690
O      0.216133865542    -1.840425188749     0.863093499524
O     -1.860453428980    -2.726330045965     0.507510614520
C     -1.646821489842    -0.270499701358     0.542047214655
H     -2.545405090059    -0.251164432876     1.173661921231
C     -2.051401361507     0.093286129382    -0.871989471345
H     -2.577675768726     1.068470202899    -0.874456827051
H     -1.150778385883     0.188373827106    -1.505457118638
H     -2.728167696167    -0.679566676082    -1.293886743103
N     -0.598398704935     0.666954390182     0.982322414791
C     -0.738842443635     1.743245851301     1.788487480676
O      0.219260611498     2.366584045297     2.329436343646
C     -2.110839274528     2.251042402699     2.045454980597
H     -2.029210050681     3.184490133163     2.632089626533
H     -2.590599543587     2.469300326606     1.078777844790
H     -2.669794765041     1.504878315288     2.633587781824
N      2.277258553105     1.640605535675     0.495680398443
C      2.858642272777     2.306357028054     1.542107109788
C      3.548334349911     3.482553830969     1.310710418264
C      3.626063478227     4.007649272437     0.039008642900
C      3.019148063138     3.326270547377    -0.984655079946
C      2.344909202866     2.123213776761    -0.700493945175
H      2.799633517936     1.897940613579     2.544273182832
H      4.004309049151     3.997333430952     2.139253748735
H      4.154445886202     4.938630005698    -0.146962213983
H      3.040584458443     3.676606361284    -1.996230592814
O      1.796914642333     1.532795525201    -1.766366073106
H      1.374118259408     0.664466118624    -1.542097408322

