# STO-3G

title

0 1
C     -0.647959586948    -0.352982498416     1.274543226038
C     -1.995406510793    -0.384021020904     1.687844593162
C     -2.325759869436    -0.809528698008     2.989816410389
C     -1.310462010446    -1.209038487911     3.881376044564
C      0.036610284934    -1.184498824564     3.467965095346
C      0.366400234459    -0.757491728361     2.166528984671
H     -0.391632318906    -0.025576999491     0.271455568953
H     -2.782319520901    -0.085589603580     0.999884797065
H     -3.367026047136    -0.832331507642     3.303078275672
H     -1.565755383843    -1.536821706792     4.886896226232
H      0.823467934462    -1.492026052845     4.153881777043
H      1.407599472272    -0.738366124953     1.852277049555
C      2.320266978965     0.584024122678    -0.847911776618
H      3.122765896711     0.037496327284    -0.357298111763
H      2.035920329633     0.208255910785    -1.826257914374
C      1.689817484973     1.632744130626    -0.271256075868
H      0.871965655931     2.126304007260    -0.780353152982
C      1.990839634210     2.163361556168     1.068579143516
O      2.899389455020     1.635761254573     1.767291818880
O      1.228973359231     3.240641846899     1.552394281781
C      1.469145322173     3.613835429891     2.916132719538
H      0.807917551000     4.465020696086     3.186216189589
H      1.240098326185     2.766109547522     3.601836632288
H      2.526225405668     3.933160030193     3.059916775917
Pd    -0.226072925416    -0.292203774055    -2.814033197720
C     -2.467755496705    -1.634309132365    -1.596998018353
O     -2.006916539530    -0.365721467763    -1.847150502657
O     -3.606446568966    -1.856416832064    -1.172462579364
C     -1.434818660029    -2.794478079567    -1.897225941753
H     -1.946850073311    -3.493785671237    -2.574930221440
C     -1.052089375741    -3.525830066979    -0.628069670209
H     -0.437597724516    -4.414411489656    -0.871149277482
H     -0.469560613101    -2.851938377890     0.032541802332
H     -1.962887142705    -3.861371620324    -0.088622508887
N     -0.244277232976    -2.220156520747    -2.492110568318
C      0.869907216885    -2.532598252886    -3.109113622371
O      1.555704479028    -1.514507134954    -3.587879878901
C      1.335920870603    -3.915573405732    -3.267423790511
H      1.537845458514    -4.325291907760    -2.264338050368
H      0.543645118594    -4.486380327063    -3.779258173416
H      2.261653100712    -3.908264059719    -3.871030644997
N     -0.176208440096     1.746015903755    -3.144473319158
C      0.845250523545     2.258951919455    -3.897999698821
C      0.949658195576     3.622600561768    -4.077416878190
C      0.029340186434     4.476383253574    -3.508742492914
C     -0.988590320697     3.935417354727    -2.767820017766
C     -1.065639988399     2.536930655205    -2.607482889390
H      1.576222751359     1.592484722700    -4.341911582920
H      1.761520059213     4.019727029095    -4.664812598750
H      0.109187562635     5.551842139665    -3.643850669913
H     -1.735164108249     4.543339664909    -2.295937526324
O     -2.071486515874     2.131701850509    -1.862995734015
H     -2.206754846887     1.116266527602    -1.756129570861

