# STO-3G

title

0 1
C     -0.376990460746    -0.286608873446     3.099317142019
C      0.354066596496    -1.492276442195     2.911791718427
C      1.727705497080    -1.551419858628     3.267297027988
C      2.356829197857    -0.426231035196     3.809332315144
C      1.621070497849     0.763345139436     4.030820257994
C      0.267285679232     0.832991273586     3.687458173258
H     -1.446643807784    -0.260986478866     2.909695397622
H     -0.161386899310    -2.406465812816     2.638176250660
H      2.280707781912    -2.474809063073     3.119754981833
H      3.412193160912    -0.462694944422     4.065756500318
H      2.114947524249     1.629588607008     4.462620443506
H     -0.292323371718     1.744600460259     3.872192316788
C     -0.870413613598     2.867698147432     1.155402291109
H     -0.687174351149     3.572344021217     0.347261330867
H     -0.006710988987     2.304575733336     1.492270046776
C     -2.097595877813     2.699154006160     1.705278506361
H     -2.243573077023     1.986404358027     2.507686625175
C     -3.319306129867     3.402960143430     1.278618091849
O     -3.280904379817     4.191772815260     0.295669928068
O     -4.514271617777     3.163331736053     1.979329976494
C     -5.673235519243     3.856697988005     1.495601915949
H     -6.550836743309     3.590102346243     2.122994549526
H     -5.527301698436     4.959446029227     1.552035849726
H     -5.896757985905     3.566606313586     0.443713037122
Pd     0.145720091547    -0.554615938636     0.603822119656
C      1.935515241469     1.467351339530    -0.348037323719
O      1.651442501916     0.749995766497     0.764825693343
O      2.718669654028     2.436642109345    -0.343658923830
C      1.214120249176     0.976549700803    -1.642077678828
H      2.011595836545     0.892816319115    -2.393607056964
C      0.189398851994     1.973378441662    -2.146680422475
H     -0.134054373687     1.697338524674    -3.169586334592
H     -0.704131531036     1.965003190695    -1.494858617838
H      0.622327101712     2.995639567874    -2.175880774656
N      0.532262005389    -0.300940857750    -1.364100905978
C      0.493608907024    -1.398630985174    -2.151583358922
O      0.105595613929    -2.542163191322    -1.773432505739
C      0.914253967848    -1.261492394015    -3.569606676033
H      0.726345572257    -2.223387412738    -4.080883813663
H      0.306209175059    -0.474283302964    -4.041445165576
H      1.993273133112    -1.039374671248    -3.608684505074
N     -1.599591071400    -1.683718872963     0.374416306638
C     -1.584453922741    -3.053905269671     0.312838962394
C     -2.767048200833    -3.749404271469     0.145211342444
C     -3.959496062719    -3.076219872146    -0.005359028794
C     -3.940001416242    -1.706135083004     0.030717259977
C     -2.712197131290    -1.042217485967     0.213995428929
H     -0.652505731809    -3.593235282711     0.438724335893
H     -2.744564266187    -4.825905955180     0.106226526050
H     -4.889977556273    -3.617666860501    -0.153732625021
H     -4.828486829635    -1.119795078855    -0.092005300514
O     -2.807109769695     0.288638532917     0.216708277363
H     -1.930766854694     0.742138358377     0.318002658799

