# STO-3G

title

0 1
C     -1.347177506390    -0.782399134123     1.348967058265
C     -2.715393895027    -0.880912066611     1.671239362568
C     -3.117796938820    -1.603504297403     2.812367295516
C     -2.153491096665    -2.229704656475     3.627433452245
C     -0.785407649039    -2.134948760138     3.300191928362
C     -0.382379697002    -1.412002044593     2.159860652181
H     -1.038670439455    -0.244925462109     0.459035491493
H     -3.455774110646    -0.408749197805     1.029354963966
H     -4.174210035639    -1.681007279184     3.060181460917
H     -2.465101382407    -2.787456036715     4.508275287988
H     -0.041185762417    -2.619883584466     3.928621397050
H      0.671095271759    -1.341140871972     1.898106500187
C     -0.395102843112     2.546368372980     0.643810570019
H     -0.522085118549     3.583654746090     0.954389855048
H     -1.293752269373     1.936455295919     0.620627140204
C      0.818074779536     1.996218759020     0.380380779935
H      0.900128279195     0.958271414373     0.087305504427
C      2.090577818294     2.740085081074     0.409451507930
O      2.075744716893     3.996585956253     0.531519719507
O      3.294425584653     2.041612051935     0.214365182848
C      4.485956000085     2.838322777806     0.181079827422
H      5.364473629741     2.176340665086     0.024272235635
H      4.447494599629     3.569850922954    -0.657069960539
H      4.625711143067     3.381234478726     1.143207233841
Pd    -1.262545553606     0.549090035575    -2.240947977362
C     -3.408158211710    -1.253991349822    -2.064395822397
O     -3.095908043184     0.026368688503    -1.742834143115
O     -4.577835642299    -1.644650721498    -2.218042957563
C     -2.171079966677    -2.206454399556    -2.219797760757
H     -2.209713313949    -2.600929006544    -3.246736477125
C     -2.293355307534    -3.365449168369    -1.241466795320
H     -1.663375568317    -4.216832327673    -1.560217540861
H     -2.013714942294    -3.032635602573    -0.221057379694
H     -3.338465270395    -3.740402037227    -1.211883520448
N     -0.935411480837    -1.414765800268    -1.990707873457
C      0.316168101007    -1.705093453820    -1.593021650328
O      1.163634063561    -0.819807248240    -1.247886347432
C      0.783546201941    -3.108391397342    -1.623826630166
H      0.399688380949    -3.620637959248    -0.727764841118
H      0.443856821682    -3.572366769914    -2.564071741677
H      1.888405681667    -3.110323924278    -1.588299103326
N      0.539928869170     1.466275548316    -2.877802489019
C      1.798723954184     1.101754077094    -3.274912148781
C      2.765021735409     2.080041364175    -3.455252564259
C      2.469282343528     3.412035854687    -3.231327445617
C      1.192282742563     3.742345036106    -2.846400064567
C      0.259446049826     2.699892757730    -2.693144931141
H      2.035393605274     0.060934052327    -3.460105839089
H      3.757216852034     1.789274043182    -3.757441583366
H      3.227677033750     4.179298133746    -3.361817385319
H      0.894735749674     4.755452318719    -2.667946967719
O     -1.028907581846     2.970982122490    -2.318682626937
H     -1.088432929130     3.475506741179    -1.476759263759

