# STO-3G

title

0 1
C     -1.329821595340    -1.023712735675     1.485015931251
C     -2.640506609878    -1.198335299859     1.972003805175
C     -2.877894170925    -2.062443517317     3.059536328393
C     -1.805239577335    -2.752037798961     3.659756392215
C     -0.494788985152    -2.580280915046     3.169231042957
C     -0.257393863682    -1.718405283795     2.080300817960
H     -1.151183162899    -0.372554564996     0.637113657188
H     -3.466886447213    -0.670474325288     1.501347007546
H     -3.890374973179    -2.197757700169     3.433796368502
H     -1.988935172818    -3.417295773117     4.501101185285
H      0.333355299147    -3.113306635600     3.631905708405
H      0.749615811763    -1.590869310775     1.688569616036
C     -0.924435602919     2.424413766815     0.553339154036
H     -1.219066855555     3.438189330453     0.279821214241
H     -1.743489896302     1.732229556378     0.711224392834
C      0.368767902994     2.040309648289     0.688037156922
H      0.613331018088     1.023221363626     0.947492522087
C      1.530101692273     2.914814608042     0.451889063082
O      1.357787771403     4.057626730248    -0.061474297896
O      2.818687036385     2.424980955443     0.723542396526
C      3.908326781153     3.274809593946     0.341488429468
H      4.867716241460     2.779954515702     0.605171873710
H      3.901073875382     3.452763222482    -0.757537202989
H      3.858892398092     4.248632028483     0.879103823534
Pd    -0.996537315604     0.826809212039    -2.029514677542
C     -3.313492801891    -0.732765147223    -1.667947430471
O     -2.804404790294     0.470264939488    -1.307492563360
O     -4.528836394338    -0.992429307955    -1.623550695758
C     -2.231595639985    -1.762962351992    -2.161967884484
H     -2.390922273062    -1.886051039176    -3.244414694872
C     -2.445818335719    -3.106130552000    -1.485769676836
H     -1.848217216535    -3.894975989985    -1.979454482724
H     -2.197642317978    -3.029662473511    -0.407333748345
H     -3.510418479069    -3.409799531509    -1.573698966293
N     -0.887055835187    -1.187042896242    -1.905982617933
C      0.304817305550    -1.604682608162    -1.436500235082
O      1.219994497859    -0.803508333978    -1.062153230573
C      0.637689626454    -3.046199531572    -1.445423478085
H      0.085850550079    -3.542024462951    -0.632499716885
H      0.397512410729    -3.450364935489    -2.441802840046
H      1.720809613541    -3.157892254417    -1.254865366729
N      0.813771708792     1.470570281713    -2.884096698242
C      1.951970088082     0.844652488860    -3.317601411115
C      3.034818039151     1.605103427903    -3.731200865186
C      2.976362256236     2.984958994863    -3.706056907211
C      1.816919768707     3.581936688578    -3.275917988501
C      0.751283277026     2.750109535407    -2.873428200165
H      2.000739085456    -0.235850175701    -3.365903629210
H      3.928247323989     1.107203489772    -4.069782760943
H      3.825182132418     3.582763507088    -4.027164528381
H      1.703719204739     4.645932555833    -3.243518421359
O     -0.435356518158     3.288705180745    -2.474633640807
H     -0.362770433193     4.103746568350    -1.939676454001

