# STO-3G

title

0 1
C      1.869042260829    -1.648489408364     0.163949088979
C      3.155618380136    -1.579082466319    -0.406512659232
C      3.510073671531    -2.450223123902    -1.456308393886
C      2.578577730760    -3.394184030978    -1.932935584117
C      1.292958953695    -3.466701349468    -1.358928144356
C      0.937618639345    -2.593903434211    -0.311843924393
H      1.586896909492    -0.973543381090     0.966681107731
H      3.875440956101    -0.849995626497    -0.040532276585
H      4.502848446180    -2.394830448286    -1.897565771913
H      2.852400369376    -4.068509842049    -2.741553761299
H      0.572931070828    -4.195778726692    -1.723743019779
H     -0.055897299861    -2.640999174397     0.126837331803
C     -0.963324500626     3.536371524563     1.754312436609
H     -0.667079745426     4.066349060044     0.852364621393
H     -0.261357677232     3.581691014837     2.582354772595
C     -2.125897225744     2.851134209913     1.873602633888
H     -2.352359663212     2.325396742129     2.791554915548
C     -3.128981913696     2.702657446812     0.806979003355
O     -2.882776709509     3.131059477364    -0.355718144687
O     -4.332362334787     2.041010832164     1.102774298840
C     -5.188529212782     1.765426920933    -0.014272067970
H     -6.098447740681     1.237112582618     0.342822674579
H     -5.504914479634     2.707941475516    -0.515257364384
H     -4.675575306314     1.104137400455    -0.749536238924
Pd     0.868837750970     1.555133435764     0.583352156731
C     -1.403222319712     0.143982057762    -0.563381131065
O     -0.690722052136     0.206506738600     0.601261295062
O     -2.447016008096    -0.513981202736    -0.675634528174
C     -0.795653410220     0.973581105473    -1.760444271004
H     -1.622586090031     1.551620729552    -2.198620626589
C     -0.218971003798     0.054329398960    -2.815467411135
H      0.145542785498     0.650418193952    -3.675718743549
H      0.633925637339    -0.514196766655    -2.387786115882
H     -0.993320997999    -0.657511765993    -3.170018520306
N      0.276351169913     1.806833023883    -1.257274624564
C      0.858164107882     2.952925229382    -1.521539861786
O      1.713638292190     3.381137167948    -0.621943644359
C      0.551791046081     3.730351053742    -2.729324832730
H      0.805812633873     3.113297015722    -3.606499239066
H     -0.525681196580     3.968785013676    -2.709204179006
H      1.154541758745     4.656055667720    -2.715631132838
N      1.419114167749     1.354905685431     2.565318124345
C      2.562719984637     1.971760116903     2.995046595191
C      2.905481919791     1.931033548052     4.330781702460
C      2.107306014131     1.269202763498     5.238997607278
C      0.968959449665     0.658663646150     4.781284548208
C      0.651229552623     0.718795294682     3.408825382755
H      3.192898767436     2.495659222145     2.285153065705
H      3.806852589356     2.420507733632     4.662335943540
H      2.373733632164     1.232793387518     6.292079716418
H      0.305729509449     0.126147731483     5.433891139907
O     -0.464746203242     0.104213883164     3.081586364669
H     -0.720836482118     0.070629632481     2.078860139448

