# STO-3G

title

0 1
C      2.267677364128     0.700135243221    -1.481049463416
C      2.765645973234     1.388377636682    -2.604322269553
C      4.146315316073     1.369732331202    -2.886121815014
C      5.027329961253     0.662672522906    -2.043341739838
C      4.527774008655    -0.024722624358    -0.918766668826
C      3.147703064598    -0.006589117983    -0.636051604566
H      1.200228152404     0.709181897519    -1.272081992491
H      2.083089987661     1.935183753331    -3.251199908823
H      4.531517990285     1.902613354654    -3.752731491080
H      6.093209543165     0.649139416974    -2.260346896572
H      5.207760232118    -0.569492462215    -0.267890867490
H      2.759786319848    -0.537375076235     0.230150556847
C     -3.151799955383     0.787704262289     0.880888772253
H     -2.981371285465     1.470502227675     1.710675331566
H     -3.343563624112     1.242049534224    -0.086591805393
C     -3.077423300764    -0.561230286924     1.010346432381
H     -3.225416607793    -1.187365958649     0.141542905669
C     -2.782168008841    -1.284634315689     2.257896948821
O     -2.548467743868    -0.645360960716     3.318891050537
O     -2.655993578891    -2.682946785740     2.199089125800
C     -2.117724783803    -3.311505998264     3.371338887308
H     -2.034169180387    -4.406178023276     3.198476077520
H     -1.095070321623    -2.926272498614     3.591869904651
H     -2.776410458239    -3.141845694436     4.252560220926
Pd    -0.314966305927    -0.321197387515     0.410934049914
C      0.394312834549    -3.042559572256     0.887134162635
O      0.532799817171    -1.823587409716     1.481608722783
O      0.663215169304    -4.105030517926     1.474124900753
C     -0.104155718407    -3.043384723823    -0.618078959252
H     -0.869805691769    -3.825987087256    -0.708145524097
C      1.045019157254    -3.348759020914    -1.558249259578
H      0.686014543243    -3.408221707979    -2.604082628873
H      1.808923850828    -2.546289402159    -1.486374830765
H      1.510972796559    -4.319215826250    -1.286324216113
N     -0.614489053010    -1.715478839446    -0.921322601486
C     -1.151159922676    -1.018346140858    -1.893017655178
O     -1.289793815057     0.276706115628    -1.701692513378
C     -1.639458222536    -1.626388715167    -3.138292416772
H     -1.030091931965    -1.228765569511    -3.967653210810
H     -1.553551425847    -2.723092234901    -3.075918492498
H     -2.697163931894    -1.336581617624    -3.265960717618
N      0.020833903799     1.339253238357     1.566393777602
C      0.532006696015     1.283972422947     2.834174051674
C      0.762627711713     2.456511326736     3.527124690565
C      0.475083195062     3.677765913313     2.953938795544
C     -0.044916441129     3.696836631661     1.684199397889
C     -0.262292989607     2.478298292509     1.012906943507
H      0.755367842943     0.324887321398     3.287753442660
H      1.164636497595     2.408608265569     4.525769997066
H      0.653080062789     4.602188286735     3.496785114439
H     -0.292533481863     4.610609519254     1.182605136095
O     -0.781328824887     2.608128638870    -0.206271995309
H     -0.969435881898     1.778056448075    -0.735745680631

