# STO-3G

title

0 1
C     -0.285989351277    -2.157625668773     1.793055643264
C     -0.264515537451    -1.450893246539     3.024789765273
C     -1.436139546202    -0.877313007048     3.525598561016
C     -2.654673175950    -1.002819950216     2.814767417672
C     -2.699100640961    -1.713422331250     1.609090429173
C     -1.515201935013    -2.299688210344     1.092138311685
H      0.601352734940    -2.687811271476     1.464708690354
H      0.670396378104    -1.336524008275     3.564777533218
H     -1.409423629058    -0.317520460673     4.456194972697
H     -3.557714429205    -0.543386649145     3.208421638080
H     -3.637192425352    -1.832676051704     1.072595991777
H     -1.575643901982    -2.955370380656     0.228365267488
C      3.060102921235    -1.672712795927     1.731434518601
H      2.962602880054    -1.899898324866     2.792060250945
H      3.248622421859    -2.524358573807     1.083793270981
C      2.969747148701    -0.414942362241     1.237515524251
H      3.063068646022    -0.240543364824     0.175423544873
C      2.752041149275     0.787901541624     2.062039811673
O      2.719666225383     0.687223978014     3.319534566757
O      2.718028153264     2.044967049498     1.428110731779
C      2.478913778662     3.166146712402     2.291692115926
H      2.435191431170     4.097747568247     1.688909190884
H      1.505747381161     3.055298182173     2.824528679599
H      3.296134523723     3.270246129814     3.040662375654
Pd     0.072338621361    -0.537014930446    -0.027741817576
C     -0.441437237930     2.178901251745     0.707227751878
O     -0.342255975613     0.942025832021     1.251454431081
O     -0.819291205751     3.176432029104     1.350382923490
C     -0.021253522255     2.251489061291    -0.792213107667
H      0.586452770566     3.161086127719    -0.886466881736
C     -1.222468521169     2.381940127332    -1.705747284428
H     -0.891329559564     2.410679093579    -2.763562580125
H     -1.900268817532     1.518202349935    -1.568406296819
H     -1.775818440302     3.316451395702    -1.474349067977
N      0.708099110520     1.017386721585    -1.143338162980
C      1.850484694180     0.912592834609    -1.850521997159
O      2.542802628359    -0.147579097355    -1.943644183252
C      2.351560367472     2.115746872179    -2.560028883100
H      1.553897582568     2.499314168218    -3.216163531504
H      2.668679840636     2.854915651764    -1.805958139911
H      3.226626214380     1.826073305888    -3.170783256055
N      0.349880106345    -2.012334309419    -1.495034302502
C      1.516182424348    -2.697077604282    -1.717101424800
C      1.585165513948    -3.628242379002    -2.737112865313
C      0.502164561903    -3.847169037232    -3.561251855690
C     -0.643031932123    -3.129061670934    -3.332206920114
C     -0.665464669861    -2.201718865022    -2.274884981470
H      2.372192243880    -2.536410071170    -1.077218414557
H      2.505502515479    -4.164420156698    -2.900261709466
H      0.556924281295    -4.566698955805    -4.373875242265
H     -1.518859092465    -3.240037682829    -3.939487853331
O     -1.816175163563    -1.538128827025    -2.129691941439
H     -1.723740756612    -0.890612942033    -1.377478524084

