# STO-3G

title

0 1
C      0.448974785392     3.139928644400    -1.459738477297
C      1.714875358750     3.681222927882    -1.763640993362
C      1.969012412968     4.205134726368    -3.047468541137
C      0.954716148209     4.191426450406    -4.026024445091
C     -0.312864965118     3.655964369420    -3.718815777967
C     -0.568018522709     3.128737648868    -2.436887719389
H      0.251121986907     2.728492216339    -0.475696597445
H      2.497497065160     3.698457324397    -1.006890206854
H      2.946347146372     4.623137763875    -3.279487735284
H      1.149060713142     4.600989869118    -5.015055888936
H     -1.097651904404     3.653201519695    -4.472326268662
H     -1.534176380623     2.699842910500    -2.188935202669
C      1.815734966721     1.716737094291     1.638460707081
H      2.673294500266     1.563581735073     2.287486128208
H      2.029195905298     1.771224414154     0.574638028269
C      0.544842093717     1.782964385532     2.094836123744
H     -0.275619068378     1.887129245009     1.398023922791
C      0.151438368944     1.672015715591     3.508560447963
O      1.026078932470     1.682744940800     4.415241164822
O     -1.216980805653     1.540345021765     3.813461474009
C     -1.529491636410     1.369207624846     5.203525167700
H     -2.629321586549     1.275282944084     5.329107460476
H     -1.051564371254     0.445860824085     5.605268365999
H     -1.186033962074     2.247070574294     5.797361195095
Pd    -0.126056786932    -0.481563585945    -0.272870433435
C     -0.094079194448    -1.859585357150     2.279579973010
O      0.717090491061    -1.607634711283     1.204766478097
O      0.319603770800    -2.361253486247     3.330963840348
C     -1.605630427149    -1.465710490737     2.066807568754
H     -1.935618645390    -0.958722399078     2.984384692865
C     -2.462647353421    -2.693391948286     1.847656422484
H     -3.525866588072    -2.397280572630     1.744029756121
H     -2.140795595293    -3.209138118777     0.919153778951
H     -2.362899033278    -3.388078778030     2.708062828427
N     -1.698935029748    -0.629467489493     0.888623005952
C     -2.448947015736     0.336060162312     0.413448322979
O     -2.012828006202     0.919728369825    -0.674548094120
C     -3.678474905887     0.776727351371     1.085774312579
H     -4.374600203493    -0.077008214024     1.121802737832
H     -3.406935739856     1.112241313392     2.101479330021
H     -4.116694276413     1.610750733033     0.508365896788
N      1.590104752773    -0.225167259989    -1.396247846085
C      1.479666928070     0.319378518255    -2.647980983240
C      2.614665042377     0.599589478741    -3.379999378137
C      3.863875373517     0.340403929137    -2.862529867354
C      3.947349737557    -0.212252177773    -1.611481095969
C      2.765949311520    -0.495330721609    -0.895110060512
H      0.500213042614     0.531015268413    -3.060525378439
H      2.514430153380     1.047996865759    -4.354859408700
H      4.760638175815     0.568636590065    -3.432228601792
H      4.888043239129    -0.444152486845    -1.152852827717
O      2.970093715842    -1.014635605604     0.296409102956
H      2.138827720880    -1.299590585627     0.836004539112

