# STO-3G

title

0 1
C     -2.379081477770     1.483670830304     2.496780781544
C     -1.652199672999     2.433623638284     3.242387407877
C     -2.290720240428     3.159268590273     4.267494669708
C     -3.653851173564     2.935788512607     4.548010610635
C     -4.380039525859     1.984933017908     3.803108424849
C     -3.741323457485     1.258846379142     2.778001101188
H     -1.883441282486     0.922591612477     1.709944039137
H     -0.601991759271     2.607224316251     3.021127929652
H     -1.729868378177     3.893836692677     4.840868084079
H     -4.145430197358     3.497788087809     5.339178095771
H     -5.431906663007     1.811801799411     4.019658284033
H     -4.300620307562     0.522492373172     2.204516412710
C      1.081614026124    -0.361652203209    -2.058216941302
H      1.960531847765    -0.409249357848    -1.421722518800
H      0.717392052198     0.640355183568    -2.271183714743
C      0.460606694820    -1.458821509653    -2.558600964683
H     -0.416386026506    -1.338569208441    -3.180249081502
C      0.861678110787    -2.851728703403    -2.300438972778
O      1.835686989716    -3.100680124528    -1.535882870960
O      0.148035106794    -3.884135552783    -2.933749453405
C      0.511150926695    -5.218954158546    -2.555990493878
H     -0.119190012396    -5.943240266493    -3.115318762610
H      1.578072253310    -5.424131834936    -2.800501790974
H      0.339734796730    -5.378686465807    -1.467219873152
Pd    -0.654817536023    -0.620040223336     0.180222044410
C      1.462531383098     0.590454105333     1.763218574420
O      0.503292083581     0.941480299673     0.858259864758
O      2.179036663724     1.419336930657     2.341310048967
C      1.585406564784    -0.962841624595     2.044273632798
H      1.467644641935    -1.080248033987     3.131618630711
C      2.946798760819    -1.489924780275     1.637233116698
H      3.088307174293    -2.516113042696     2.028376591164
H      3.023953949671    -1.514645816257     0.530538611725
H      3.750884700331    -0.844811165222     2.049505223400
N      0.554757681656    -1.663391522372     1.302700532003
C      0.052501567229    -2.862258774348     1.113291269711
O     -0.986061454648    -2.924507862700     0.311293974015
C      0.610265032088    -4.070644249119     1.734126146087
H      1.610827631801    -4.236387423361     1.300759947496
H      0.662339392870    -3.904420944376     2.822415915079
H     -0.051045294791    -4.923405490702     1.498852303064
N     -1.946640823547     0.471604956583    -1.002006579282
C     -3.012840392035    -0.173408048333    -1.567135454102
C     -3.868140641204     0.515452659645    -2.402231603828
C     -3.660707157267     1.852047920928    -2.668792056769
C     -2.585489359003     2.472647114349    -2.087909377601
C     -1.735879571502     1.737683980807    -1.236277256881
H     -3.177636696517    -1.225398087497    -1.362535631100
H     -4.705333239403     0.001153627190    -2.845358765355
H     -4.333022092260     2.400269746425    -3.323494920228
H     -2.370510428677     3.510463576188    -2.248904972495
O     -0.734417833247     2.430929671499    -0.735867155028
H     -0.125588101622     1.968349576031    -0.045704669911

