# STO-3G

title

0 1
C     -0.925788806972     0.323294965915     3.863527625299
C     -2.231434867408     0.666178828730     4.270856821008
C     -2.659006272011     0.383422093111     5.583384922526
C     -1.784150004260    -0.244193006741     6.493063971438
C     -0.481287081139    -0.594252067462     6.085970511820
C     -0.055111510938    -0.310568480194     4.772800687564
H     -0.587973818716     0.548788179015     2.856605890730
H     -2.906424585405     1.144039827009     3.565177035787
H     -3.666181149401     0.652212073120     5.895025203831
H     -2.114019221178    -0.458814195693     7.507281560690
H      0.195281245471    -1.084645007828     6.782722853045
H      0.947737024551    -0.591824148193     4.455790292833
C     -0.156156727984    -1.286470537095     0.143021221832
H      0.810200841011    -1.579844744738     0.547613290909
H     -0.135333049127    -0.724558360487    -0.786203903219
C     -1.325327064776    -1.572647723094     0.759597327146
H     -2.260093805560    -1.219033790960     0.341167293750
C     -1.451939390010    -2.332659015237     2.013578043771
O     -0.425625847347    -2.828113540472     2.555836907778
O     -2.735004604869    -2.536267702334     2.550385585046
C     -2.777873397756    -3.164242300074     3.838985580981
H     -3.834226037451    -3.253261603379     4.170319173331
H     -2.335353829746    -4.185020659045     3.797970033342
H     -2.230415015364    -2.553433235608     4.592316615215
Pd    -0.305018735014     1.751228408733    -0.933119225112
C      1.846659364610     1.773579273061    -2.788182680826
O      0.497202800673     1.556072326969    -2.769988298327
O      2.496346146688     1.824659389103    -3.844254605403
C      2.569939757808     1.949344262640    -1.380415255102
H      3.153171520299     2.879109892549    -1.432009724169
C      3.500235272909     0.789151763355    -1.096901577397
H      4.060879783727     0.970611600704    -0.159120710363
H      2.910649947383    -0.145409777065    -0.997266092214
H      4.228097089779     0.673941653755    -1.927634241043
N      1.544275138364     1.992911070137    -0.356837322567
C      1.323519810176     2.195818367357     0.913492549598
O      0.059182996672     2.131352252035     1.301575071973
C      2.390784512559     2.479386436422     1.878650119497
H      3.050667623277     1.598435012258     1.931210202116
H      2.940088915436     3.369246528700     1.528962830937
H      1.932398896154     2.669527717844     2.866903135228
N     -2.313865255216     1.444619766911    -1.250040021773
C     -2.845556593477     1.265263161391    -2.498169306754
C     -4.196046816420     1.010630488411    -2.633685517562
C     -5.011252929280     0.939464398341    -1.523235257840
C     -4.446957966024     1.128869955390    -0.287314697819
C     -3.066349148028     1.389681221169    -0.192869379841
H     -2.207291339723     1.317108573276    -3.373042627578
H     -4.610694276467     0.866162741736    -3.618194670892
H     -6.074213675654     0.737042401752    -1.625198748425
H     -5.022711411102     1.082820747317     0.615821500627
O     -2.622772301143     1.541477282955     1.050133453569
H     -1.648695416302     1.736782216639     1.179813742128

