# STO-3G

title

0 1
C      2.146212122612     1.120064775618    -1.855085827756
C      2.486561242389     2.454967964144    -1.554377347079
C      3.731365344746     2.753593005806    -0.966855066819
C      4.643535967154     1.716735891237    -0.682136151188
C      4.310267036902     0.382684117300    -0.989559837261
C      3.063985143926     0.085705133071    -1.576255343426
H      1.185715941881     0.887722427505    -2.309245002092
H      1.780130730556     3.253931576125    -1.772039748430
H      3.989152617629     3.785190105923    -0.736723907420
H      5.605594418240     1.947903328567    -0.230533230105
H      5.013725890817    -0.417768569440    -0.773639439120
H      2.806539846514    -0.943185639540    -1.814715807499
C     -3.056233305894     0.097493408729     0.116638300530
H     -3.271728457208    -0.710135336811    -0.577811276966
H     -3.095192849581     1.100276052602    -0.298838672732
C     -2.715824067690    -0.115623591501     1.409691281444
H     -2.478169818137     0.725317327865     2.048017644699
C     -2.610560210601    -1.438220882516     2.046781375542
O     -2.787715525647    -2.482615330572     1.359149509038
O     -2.366547798672    -1.500756108446     3.429298701641
C     -2.156785227515    -2.812960550045     3.969592001872
H     -1.976448127769    -2.736792196686     5.062968180985
H     -3.048388515040    -3.459287915088     3.806275018426
H     -1.262579325525    -3.291134101296     3.509599915614
Pd     0.158127354149    -0.512946538874     0.005532914230
C      0.319429202217    -3.194373695651     0.976115597542
O      0.545776625780    -1.922691925200     1.409965446228
O      0.472269838791    -4.184073919656     1.714496319938
C     -0.147834722300    -3.366397817548    -0.532447371484
H     -1.093601497502    -3.927671700991    -0.514937346087
C      0.879105530768    -4.137860072948    -1.333395224437
H      0.532086122204    -4.266070751062    -2.377906096914
H      1.837698321802    -3.579443025442    -1.338527971679
H      1.040735441807    -5.138843055514    -0.881049514728
N     -0.286828651404    -2.044215925206    -1.121173480356
C     -0.926105959914    -1.439330017796    -2.091692630217
O     -0.890773897578    -0.120054151491    -2.102768590053
C     -1.671235508590    -2.158835591178    -3.134333992879
H     -1.211852194643    -1.910834470516    -4.106161724130
H     -1.622801275845    -3.243323774211    -2.946158138113
H     -2.719043136099    -1.813034068583    -3.104867884822
N      0.355295739487     1.229267802602     1.067070483913
C      1.028007257791     1.300570244395     2.255656531150
C      1.126771286123     2.512945679944     2.910575016610
C      0.557047867551     3.648132337359     2.372527822146
C     -0.109602639022     3.540729182066     1.177969257789
C     -0.182622162034     2.285657769965     0.543209563400
H      1.475342400370     0.408962167431     2.680190886628
H      1.656317789036     2.564955493762     3.847628992882
H      0.633769748788     4.604115433653     2.883499090839
H     -0.572653375287     4.382946580181     0.704834850769
O     -0.849789834962     2.292119852974    -0.610473621658
H     -0.914170170679     1.430451115207    -1.116614806544

