# STO-3G

title

0 1
C      2.263691756951     1.332897522996    -1.321196792823
C      2.352110167001     0.873738798600    -2.651199507500
C      3.458745969523     0.104031974386    -3.058281550387
C      4.479379287768    -0.207212411362    -2.136235561912
C      4.394177735909     0.256632449952    -0.808488744590
C      3.288517475095     1.029578199412    -0.402391630201
H      1.412975960342     1.939784633644    -1.020374249911
H      1.558980973161     1.114526916309    -3.354627010417
H      3.527851234684    -0.247173603171    -4.085574942079
H      5.333928816396    -0.802120492421    -2.450828890879
H      5.180466840499     0.017098009244    -0.096677846832
H      3.223274815843     1.387796458020     0.622085353389
C     -3.069935074967     0.180189746083     0.408457742358
H     -3.154491345335    -0.431809799535    -0.484977003230
H     -3.168479401741     1.251491269349     0.253013861515
C     -2.818115447807    -0.334442920120     1.635846190904
H     -2.712023515016     0.329048905386     2.483871943156
C     -2.638439625402    -1.765511619117     1.930839864014
O     -2.682544804081    -2.612182557365     0.995182909161
O     -2.478202785228    -2.159171196217     3.270473313419
C     -2.189190146215    -3.547946602978     3.484122954579
H     -2.080781784120    -3.738658635041     4.573020872731
H     -3.011303565220    -4.190692788428     3.096303373721
H     -1.231966967523    -3.832462845921     2.991224859975
Pd     0.039809653935    -0.086309501423     0.319377746589
C      0.603858593497    -2.844555302527     0.796480368000
O      0.586611752626    -1.665740349469     1.479144484437
O      0.851736450269    -3.930991474559     1.350463263201
C      0.308592662070    -2.773332911779    -0.761943996638
H     -0.452583503737    -3.533902460249    -0.986385650002
C      1.563431572283    -3.058354010738    -1.559916534334
H      1.338815734022    -3.037347695193    -2.644759496156
H      2.324849823045    -2.280264349048    -1.338345122393
H      1.968298252448    -4.056555655526    -1.292105784455
N     -0.124735168122    -1.425060819817    -1.077216147878
C     -0.727202832337    -0.733480827988    -2.007685719571
O     -0.917825850228     0.552961342382    -1.777034960839
C     -1.194476117189    -1.325654287985    -3.268381839382
H     -0.657276038405    -0.826951305198    -4.092329570236
H     -0.988614866193    -2.408326205910    -3.266565233011
H     -2.280328362553    -1.143817970743    -3.347399010216
N      0.004821176141     1.491000753060     1.632115582637
C      0.470439229015     1.418778846012     2.916071680355
C      0.385586329864     2.528610476843     3.733626659052
C     -0.164745237255     3.704237308167     3.265736688961
C     -0.627426239196     3.739794589147     1.974251923129
C     -0.523433597708     2.585225523947     1.174774510367
H      0.903794051041     0.495879058033     3.285030273193
H      0.753511710127     2.468997887484     4.745112109662
H     -0.232903937069     4.579804740400     3.906017958168
H     -1.069670423828     4.619257720710     1.550319449078
O     -1.017941254840     2.719390829592    -0.053955927315
H     -1.008141552601     1.923234692409    -0.671127579581

