# STO-3G

title

0 1
C      2.684546221811    -0.896727386596    -0.805124060781
C      2.905203012449    -0.403682826417    -2.107952529723
C      3.573475944040    -1.200767713942    -3.059503251834
C      4.020762512844    -2.490987528653    -2.711225682956
C      3.806071461870    -2.981809040684    -1.407522719850
C      3.141738089634    -2.183652042247    -0.455244810249
H      2.175191371416    -0.286165957680    -0.066048049128
H      2.568447731544     0.594520529961    -2.378895445012
H      3.744875791589    -0.816561182355    -4.062373220582
H      4.537285318189    -3.105053923902    -3.445686753747
H      4.158660879351    -3.973932180863    -1.133494996090
H      2.987154380996    -2.560173183649     0.553895660928
C      2.049342105062     0.546704207985     2.467662282273
H      2.688638898950     1.224925413529     3.026267661104
H      1.433321781226     0.999729633261     1.694693060929
C      1.988704686152    -0.784115149802     2.698482717092
H      1.318312454799    -1.403580868321     2.116349928485
C      2.773200794554    -1.494899497839     3.719093027317
O      2.702901467876    -2.751990918909     3.767688515526
O      3.640782842146    -0.777640019870     4.564521970573
C      4.381701075391    -1.560151181530     5.511153176037
H      5.024053094289    -0.888982768264     6.120806368776
H      3.694498520922    -2.103644152824     6.198668670188
H      5.039645620045    -2.292234439164     4.990155157804
Pd    -0.995168216975     0.565660951660     0.745573654575
C     -0.417606069164     1.356590928592    -1.924521127943
O     -0.642916713924     1.925080780685    -0.699232088782
O     -0.042437417765     2.025299097698    -2.901323565811
C     -0.657955854144    -0.207024272432    -2.045382449405
H      0.212532355805    -0.636385808075    -2.557000781618
C     -1.910707959526    -0.510569233667    -2.837254512870
H     -2.034467244049    -1.607059154203    -2.941676608714
H     -2.793902217802    -0.094303282853    -2.310000573998
H     -1.839783614881    -0.058344598427    -3.848748235391
N     -0.825739546930    -0.724749278889    -0.704596736891
C     -0.763885585081    -1.819934650694     0.000413452606
O     -0.918117510867    -1.680021412922     1.310043916245
C     -0.500681907113    -3.132453619880    -0.597677714323
H     -1.328996707608    -3.368787188757    -1.285182517833
H      0.456741745412    -3.072149915164    -1.143718612132
H     -0.438851577104    -3.885475917985     0.208890690312
N     -1.126106588886     1.718577316712     2.443111355002
C     -1.183650987633     3.085066365535     2.397235964326
C     -1.271064245260     3.804251218249     3.572653080071
C     -1.302989014660     3.156357394167     4.789955175556
C     -1.245198729703     1.786046473643     4.800640759848
C     -1.155001913447     1.089655242948     3.579702238217
H     -1.158369709958     3.597905347151     1.442381062616
H     -1.314259150024     4.880547106400     3.532480272229
H     -1.370514844509     3.718127435005     5.717867738103
H     -1.259716366943     1.221034953385     5.711396901324
O     -1.087467292329    -0.229526898496     3.708755637018
H     -0.995080041476    -0.779859117267     2.879732619060

