# STO-3G

title

0 1
C     -0.715875554641    -3.037684108506    -0.061916820934
C     -2.052006028409    -2.580373356022     0.104594541325
C     -2.800756030976    -2.991021225609     1.238830702038
C     -2.230146590351    -3.859773915513     2.179034232160
C     -0.901853103908    -4.328158071988     2.007028619625
C     -0.151409506587    -3.922230664335     0.897462484443
H     -0.182892668514    -2.807500849920    -0.976382076830
H     -2.516731198659    -1.990774933203    -0.680337354001
H     -3.824299132587    -2.646172432066     1.357386811273
H     -2.809799346484    -4.190418169331     3.037722187042
H     -0.470142368216    -5.011698846043     2.734521549381
H      0.861997254724    -4.293019959134     0.760585743204
C      2.413266949857    -1.845743211048    -1.420036283434
H      3.281656401917    -1.226931567727    -1.200895063857
H      2.170575166042    -2.593967412151    -0.668931416842
C      1.691179605350    -1.734223550879    -2.559731668934
H      0.838720111628    -2.375772926240    -2.733010036750
C      1.947473534285    -0.761556209163    -3.634344774613
O      2.813544824050     0.141006416693    -3.468944949857
O      1.232614248331    -0.880929239778    -4.837003164336
C      1.378244654021     0.206055658867    -5.760807445966
H      0.758859531833     0.007235590577    -6.661460278365
H      1.023136768858     1.158509631976    -5.304469134341
H      2.438541620265     0.316957078062    -6.081741729609
Pd    -0.486367665598    -0.627162035933     0.455770669559
C     -0.606973304028     0.948558345612    -1.933963708265
O     -0.996395915159    -0.251791586081    -1.442313844244
O     -0.753380886552     1.269531516007    -3.128305365385
C      0.057212120851     1.897266996552    -0.886124856859
H     -0.415025930593     2.876879792888    -1.039934889044
C      1.544666546439     2.043759893222    -1.128864442755
H      1.986340416800     2.744172158315    -0.392992064589
H      2.044897569689     1.063139656909    -1.025426122490
H      1.729574983757     2.433724835931    -2.152301860647
N     -0.152002736304     1.358197336626     0.470508373892
C     -0.505691795845     2.038968630148     1.585555793289
O     -0.920635307202     1.502806566728     2.653304249350
C     -0.390849092435     3.519590445577     1.567004473803
H      0.639866159540     3.791111026742     1.289403533237
H     -1.135001230137     3.924320290105     0.863380698945
H     -0.609615613290     3.901309781874     2.581676043812
N      0.247846747901    -1.022531687844     2.347326887603
C     -0.590872904582    -1.139503937039     3.423713058332
C     -0.071754120615    -1.450280791801     4.667529593544
C      1.287396466906    -1.604166496558     4.838547025646
C      2.102184403099    -1.456295079490     3.744843426113
C      1.522810309256    -1.151188234122     2.498914783984
H     -1.659740060406    -1.016347377259     3.293573350117
H     -0.738599405244    -1.545074203458     5.507723548156
H      1.702506117708    -1.832289934666     5.816440868917
H      3.167004235144    -1.551403044299     3.808656038273
O      2.396908756192    -1.023639814498     1.493976175702
H      1.938607074709    -0.779214338256     0.650818221742

