# STO-3G

title

0 1
C     -0.679318677919     3.903972733225     0.900427520059
C     -0.214900663864     5.228265043306     1.029061705190
C     -0.646770375261     6.028984916875     2.105541120014
C     -1.549569061196     5.506150947195     3.052543154453
C     -2.021157448855     4.184378154201     2.919447555275
C     -1.586322319034     3.383967442338     1.844876595799
H     -0.336391499382     3.284155078402     0.078967625748
H      0.487572068088     5.629649972395     0.301131833060
H     -0.284312593109     7.050028262456     2.202788920080
H     -1.886350265474     6.124041048973     3.882246480360
H     -2.725090017008     3.783177428386     3.645692591631
H     -1.941946303802     2.364302057746     1.727748540030
C      2.407684131738     0.834031790954    -1.077653385550
H      2.622986992163    -0.085548946971    -0.539597531616
H      2.277702285125     0.734771713288    -2.151430790982
C      2.311569521822     2.040013991863    -0.470535044351
H      2.088739945096     2.922905364392    -1.055082635178
C      2.460300964114     2.269385898465     0.975108806855
O      2.538551565233     1.289303767084     1.766826372074
O      2.490208935331     3.592484602327     1.445010172884
C      2.387562828922     3.755906927387     2.866060144736
H      2.406450628710     4.839320280160     3.112082337807
H      1.423952971814     3.340157600327     3.239918842234
H      3.238728520577     3.262079136766     3.386834966736
Pd    -0.125605820725    -0.887336600906    -1.273162360682
C      1.214837549660    -3.319697449976    -0.649178813029
O      0.819273182020    -2.604646223700    -1.745142145269
O      1.901791378594    -4.349464348503    -0.744217286264
C      0.748143077330    -2.776515948243     0.770652014385
H      1.645978780283    -2.693932655578     1.399891146222
C     -0.232928963799    -3.725860928515     1.422777861708
H     -0.503959013481    -3.355963149638     2.431513717050
H     -1.150345656817    -3.794042431399     0.802317962003
H      0.220314599287    -4.734770108561     1.519910811705
N      0.088816914006    -1.502403213688     0.563246626482
C     -0.242563720309    -0.405896575931     1.192632736672
O     -0.709056020625     0.581279344453     0.444481234434
C     -0.117419064995    -0.261720094896     2.647753715046
H     -0.785930489399    -0.994249952063     3.127160439574
H      0.936818184901    -0.449771217106     2.914663972977
H     -0.396675365247     0.768491729155     2.930171801491
N     -0.303571214338     0.034823386601    -3.102705049795
C     -0.134464276675    -0.627763796851    -4.287828777696
C     -0.217767623315     0.070553327326    -5.476587109397
C     -0.471746634463     1.426676167457    -5.477257432363
C     -0.634136544334     2.060262881185    -4.271156345911
C     -0.541881029226     1.310790794698    -3.082631760937
H      0.065337219065    -1.693422737695    -4.290494892185
H     -0.083205687691    -0.454277705965    -6.408520040971
H     -0.539132640886     1.979664048946    -6.410482800390
H     -0.831839230057     3.111379350294    -4.200072641952
O     -0.694457264111     2.021629089930    -1.969957087722
H     -0.655808521968     1.527084876983    -1.099741737291

