# STO-3G

title

0 1
C      1.552104211482    -0.782978650801     1.423085571800
C      1.071353980755    -1.832945422932     2.258207800060
C      1.678751173600    -3.117730863260     2.208370471797
C      2.753560477300    -3.345167304590     1.345014307033
C      3.251128430977    -2.293206649889     0.535189388436
C      2.660330513329    -1.026841752083     0.570906730834
H      1.148120519017     0.222062105122     1.501439870415
H      0.364900901025    -1.603245058986     3.048918327635
H      1.313431365423    -3.912370176628     2.853594142034
H      3.212411378578    -4.328757139044     1.291671439601
H      4.092027321761    -2.478362856840    -0.128185549405
H      3.034243542194    -0.227093774344    -0.060518625361
C      0.759351282519     1.311802549570    -1.317147817772
H      1.468124418074     0.926856659651    -2.047053076037
H     -0.232506226648     0.875385992653    -1.344064860972
C      1.068685370077     2.255536787466    -0.397695914031
H      0.317785448460     2.560954683161     0.318211283995
C      2.385427596495     2.899873764378    -0.261983613295
O      3.335269482464     2.560651618554    -1.019645590509
O      2.572038024387     3.844854334985     0.762482584196
C      3.890341094857     4.400146323027     0.870399879142
H      3.915093842541     5.129552485532     1.708306739694
H      4.638965985475     3.602814231890     1.081124623457
H      4.172431566312     4.934436697321    -0.065142120122
Pd    -0.543442848442    -1.500244081691     0.320122211838
C     -0.222662699452    -3.270623429349    -1.836470903906
O      0.533801663731    -2.634917645708    -0.917008939276
O      0.063359838532    -4.380846445484    -2.323215594231
C     -1.463265455662    -2.458143419741    -2.325035248261
H     -2.282805451772    -3.174825315606    -2.470758707625
C     -1.114493083931    -1.802938889471    -3.654774950330
H     -1.998823394189    -1.337694384082    -4.127061414860
H     -0.335690927270    -1.028313253545    -3.491578127893
H     -0.718466327800    -2.562969222508    -4.361936563267
N     -1.783210102781    -1.403436909386    -1.320441057998
C     -2.641882958867    -0.402355149434    -1.446719571699
O     -2.588060460091     0.712312940303    -0.800270557550
C     -3.813526099088    -0.515297609192    -2.344219774321
H     -3.685401357523     0.211111843781    -3.164813709103
H     -3.932647177149    -1.539860800675    -2.725474111435
H     -4.711404361343    -0.252017388510    -1.756267908363
N     -1.778130391339    -0.700838822920     1.793218543672
C     -2.288305822383    -1.624905672801     2.665567263438
C     -2.812261337151    -1.215400499635     3.874412881446
C     -2.852029034666     0.122708660400     4.204582521272
C     -2.386413327622     1.032417157733     3.291930110484
C     -1.875549849140     0.578535843078     2.057325907294
H     -2.236000674966    -2.680473667737     2.424616267548
H     -3.187687636908    -1.951051788710     4.567184434808
H     -3.261698172658     0.449582727464     5.156761574903
H     -2.426366938695     2.089236806888     3.465601394777
O     -1.541722033778     1.498657931457     1.191200972836
H     -1.875909074195     1.134774760600     0.164400111556

