# STO-3G

title

0 1
C     -1.074654243633     2.775036392454     1.336839171118
C     -2.092007112103     1.812947356356     1.073823202728
C     -2.510416749263     0.919471499084     2.098704071365
C     -1.926424467891     0.991197043812     3.366307425785
C     -0.941204993612     1.972860716894     3.638770537458
C     -0.523073260617     2.857020927959     2.640431244994
H     -0.788874725318     3.502791847332     0.581854959655
H     -2.664370800363     1.880921577968     0.154996853501
H     -3.296452740401     0.197042667219     1.894586959625
H     -2.230029361246     0.300512926595     4.148290132429
H     -0.499868951456     2.033642643791     4.630117017844
H      0.232024908608     3.605444104164     2.858152611089
C      1.955588780596     4.185133290053     0.440659455159
H      1.594043862586     4.844931003155     1.227342530585
H      1.667083898074     4.446997621096    -0.573205905659
C      2.687017223553     3.074422961688     0.689169363270
H      2.992292235460     2.451875843051    -0.136977728388
C      3.071847320473     2.586562159193     2.023492369930
O      2.835100483790     3.287812583450     3.045461273894
O      3.815481980537     1.395908075525     2.112450761280
C      3.940770618004     0.845181291471     3.430990019388
H      4.511140630820    -0.106641282054     3.382196815792
H      4.481768904505     1.546210000894     4.105934385606
H      2.935966729163     0.618372920643     3.858164327011
Pd     0.024666586642     0.969634642264     0.004235595319
C      1.465197214952    -0.883396138364     1.542438908146
O      0.826931684386     0.291474213464     1.700845222973
O      1.634355760258    -1.702138870549     2.467734020677
C      2.005385204301    -1.160793236020     0.087142926719
H      1.490653449705    -2.063713125084    -0.272662338798
C      3.501340231924    -1.435816878455     0.149689478307
H      3.846653507822    -1.966758281742    -0.756812413113
H      4.053232528623    -0.483398349278     0.288717774568
H      3.737675953451    -2.100159032367     1.007798187618
N      1.675124777585     0.018314832258    -0.763126036483
C      2.261095871124     0.563515438070    -1.816863948613
O      2.051329900146     1.766327383116    -2.235448340868
C      3.193277801815    -0.218319102078    -2.654601861018
H      4.194463564588    -0.179778818184    -2.197072279207
H      2.803988454918    -1.244931634468    -2.754191935358
H      3.244983836980     0.244242850637    -3.658067818530
N     -0.968717746019     1.426010142736    -1.763763972405
C     -1.999558985953     0.596620480229    -2.114940654604
C     -2.920512706426     1.004107490957    -3.058058928804
C     -2.800017441083     2.233336149556    -3.671379817343
C     -1.731080793781     3.024339322768    -3.340579938967
C     -0.798361241703     2.567083304600    -2.385744354979
H     -2.114861774263    -0.360190956643    -1.618867618487
H     -3.743612159433     0.355853717325    -3.311670471506
H     -3.524419121848     2.558863569159    -4.413418334931
H     -1.554493733744     3.972662754976    -3.807555916017
O      0.247826179535     3.324362401445    -2.183579946187
H      1.143914598095     2.651272706769    -2.033640793757

