# STO-3G

title

0 1
C      1.187456103348     3.075028472883    -1.666825311736
C      2.341703133262     3.672130036508    -2.211524013532
C      2.290995442629     4.275578272442    -3.483776923023
C      1.083624238283     4.280155812864    -4.210724040361
C     -0.069665556892     3.680915704627    -3.665461160816
C     -0.022476685809     3.076000344446    -2.393217984637
H      1.240901667898     2.594629644505    -0.693515186266
H      3.272705206289     3.665556567186    -1.647648727683
H      3.181759150136     4.739094866819    -3.901930736144
H      1.042002838029     4.748685742335    -5.191589418655
H     -1.001631530988     3.684890827623    -4.226077199893
H     -0.912216403473     2.601561094751    -1.984782276194
C     -0.502701087510     2.361816906389     1.439175997549
H     -1.524828295346     2.316324633426     1.809008426099
H     -0.391309990215     2.746312134669     0.433812233485
C      0.554843183899     1.952760044175     2.177423763738
H      1.557732149140     1.980405002999     1.769531519198
C      0.449263389370     1.400513957592     3.538004620516
O     -0.688141301546     1.251920586713     4.066090764301
O      1.624330478184     1.022262811015     4.207878095613
C      1.439425005374     0.318026522462     5.443745913930
H      2.431488186154     0.060723143797     5.872419595120
H      0.890939612649     0.945940974275     6.181480809014
H      0.880734238025    -0.631713156185     5.276734279999
Pd    -0.457625570574    -0.396771590938    -0.222521183169
C     -0.837594015081    -1.535161739762     2.420164041991
O      0.149103634697    -1.306745832059     1.498840105358
O     -0.609210840040    -2.053084379634     3.520752792351
C     -2.283387174883    -1.077455021000     1.976033142916
H     -2.643375466825    -0.389823111313     2.756610936048
C     -3.223275067913    -2.260179246566     1.885776946569
H     -4.246843682555    -1.913637230647     1.641768366570
H     -2.874844024111    -2.949600753183     1.089211975431
H     -3.250400127014    -2.801671260290     2.854834842458
N     -2.201353612815    -0.453520977160     0.668108553772
C     -2.861992741570     0.408884377750    -0.069618409588
O     -2.244890543824     0.840401278585    -1.142922568833
C     -4.200220972237     0.895041082708     0.293539641929
H     -4.888451602349     0.034234306507     0.291973293505
H     -4.138663408531     1.351265227840     1.295607433588
H     -4.519109069206     1.642856200485    -0.454964336377
N      1.414148865416    -0.265050155801    -1.090641683502
C      1.506246222381     0.021553592050    -2.426699575711
C      2.743808961937     0.206615116548    -3.007722703626
C      3.892249972418     0.115247160625    -2.253289634415
C      3.773045280865    -0.181335952698    -0.920694953611
C      2.492538710523    -0.382884539185    -0.365303769369
H      0.605305505664     0.117016701416    -3.022076267168
H      2.803220702173     0.455054082276    -4.054693575699
H      4.868187712717     0.273996440458    -2.703991503195
H      4.626384754703    -0.276789268008    -0.279242966098
O      2.498977193791    -0.669009393362     0.920877281680
H      1.603056675725    -0.957755981005     1.337674171452

