# STO-3G

title

0 1
C     -0.255606795656     1.158764035523    -2.570578314140
C      0.316525442653     1.343425341127    -3.846046235225
C     -0.164096723205     2.357019293782    -4.699008220463
C     -1.220357947752     3.187745909328    -4.275684587646
C     -1.796690130747     2.999649358069    -3.002959555645
C     -1.319291909935     1.983981228338    -2.151297862662
H      0.113735770637     0.379973684894    -1.908767605419
H      1.139627518323     0.709724348538    -4.173800598679
H      0.283667985228     2.499154050097    -5.680563062644
H     -1.590809982054     3.972961611874    -4.931593513541
H     -2.614748880601     3.638382093602    -2.676921902335
H     -1.770460324939     1.817940783587    -1.177707002067
C      2.626243975776    -1.360577117081    -0.806265974868
H      2.501990044889    -1.233044934013     0.265825332787
H      2.613288347054    -2.384752817839    -1.164676117935
C      2.802864882890    -0.325019106061    -1.658169679801
H      2.905247665220    -0.517075993989    -2.718617694727
C      2.844239995323     1.093393555582    -1.268411195064
O      2.653131459154     1.423126224004    -0.065861467607
O      3.049642858558     2.057563964927    -2.269171121913
C      2.771285434013     3.413601569599    -1.894366043216
H      2.953587646411     4.080211406655    -2.764233729517
H      1.703468442120     3.526273289991    -1.594991456004
H      3.430328102026     3.739812065822    -1.058235522012
Pd    -0.485039268348    -2.018122690446    -0.450441539726
C     -1.665007978633    -0.101987452755     1.294222222838
O     -1.665747559552    -0.436557676298    -0.029967191060
O     -2.419020171262     0.772028106143     1.753494029237
C     -0.633233907421    -0.866664832621     2.226736128707
H     -1.186902320200    -1.224189276161     3.105671787755
C      0.477530524582     0.059503170205     2.675010612771
H      1.190164241148    -0.480507686144     3.329022610163
H      1.023851458221     0.444096360432     1.787763310307
H      0.053273265005     0.918461656079     3.235944078985
N     -0.052023725496    -1.943910210238     1.450157297352
C      0.677097149585    -3.024197264840     1.536983682427
O      0.905456726076    -3.670367925094     0.405439264729
C      1.222757896432    -3.534242965254     2.800638495449
H      2.323056863125    -3.525149894265     2.720795280835
H      0.886019405660    -2.894363609570     3.632555953173
H      0.855413585039    -4.566363872207     2.937929041388
N     -0.752773731587    -2.319533921424    -2.470612764245
C     -1.653720158617    -1.616273384573    -3.224442716588
C     -1.706931763545    -1.819919075442    -4.589129423509
C     -0.865569790252    -2.727575162706    -5.196245746286
C      0.015595694683    -3.426460012136    -4.410348652720
C      0.034363489280    -3.192201801577    -3.021503146879
H     -2.315211068090    -0.898903973659    -2.751841231711
H     -2.405921319751    -1.249107922120    -5.178638768363
H     -0.901247073348    -2.886171025307    -6.270737729883
H      0.692392817384    -4.150496252811    -4.817791278524
O      0.931475922444    -3.917901579317    -2.357472136840
H      0.944729755876    -3.846719561072    -1.358502229583

