# STO-3G

title

0 1
C      0.580712412167     0.405289710925     2.904883920766
C      1.795455234180    -0.204452509417     2.487716257145
C      2.159034233948    -1.477132059621     2.996271728912
C      1.330151544030    -2.124628252215     3.923945353849
C      0.122739892231    -1.515753532734     4.350868815249
C     -0.247771885640    -0.262245163852     3.848913997636
H      0.371266391981     1.430855907429     2.615683570605
H      2.469928452267     0.345922916997     1.838624471452
H      3.093053266931    -1.933072403490     2.679516480988
H      1.618161319386    -3.091522985477     4.330103155959
H     -0.508806299199    -2.017135366460     5.080542750113
H     -1.162822772493     0.211585149693     4.196989616285
C     -2.247037895868     2.329354775371     1.893745749884
H     -3.292883767530     2.485753242382     2.142477601590
H     -1.781133157165     1.470327905155     2.365399261747
C     -1.547008168187     3.118361565384     1.044582491986
H     -0.515921201950     2.884780086245     0.808940247085
C     -2.103717149295     4.299834183501     0.364652912527
O     -1.423883896155     4.853932269188    -0.537447683329
O     -3.426412206353     4.700144540581     0.630756540304
C     -3.895291025374     5.840212522414    -0.103249311965
H     -4.941817585524     6.065739961235     0.194840442840
H     -3.270570690164     6.736015785262     0.115568842348
H     -3.881473872008     5.639266503518    -1.198618147323
Pd     0.115312244432    -0.155401564213     0.536755852043
C      1.186195003312     1.866911586249    -1.203508981281
O      1.232524918895     1.440594086525     0.084455373702
O      1.870717199653     2.815545428126    -1.625376094944
C      0.201468920195     1.064962806016    -2.112496540007
H      0.727879431816     0.945640783671    -3.068163551821
C     -1.081849724322     1.826989085841    -2.369424196336
H     -1.695631179610     1.292454494676    -3.121228017150
H     -1.666882180104     1.907802313726    -1.436097744204
H     -0.855241701622     2.846700786034    -2.748083811275
N     -0.134503627545    -0.220965391508    -1.465267647721
C     -0.142968717844    -1.446835416859    -2.042917224001
O     -0.123482611481    -2.540753815904    -1.409375760641
C     -0.218935557466    -1.520218722604    -3.524247911075
H     -0.352713745301    -2.579314332937    -3.811267405655
H     -1.091926489150    -0.937921230823    -3.858809242438
H      0.724273127644    -1.147871622030    -3.956251166884
N     -1.193531902621    -1.683656454155     1.001426009664
C     -0.702254363662    -2.929866514388     1.287920093400
C     -1.570624381503    -3.947781757427     1.636649225756
C     -2.930926274207    -3.728921046229     1.654876902415
C     -3.392993477353    -2.478574592940     1.332306725174
C     -2.467359587250    -1.472786176306     0.994567490094
H      0.366045570722    -3.108980438488     1.264459682021
H     -1.174827442706    -4.922709435034     1.865682993269
H     -3.619804633204    -4.529428868186     1.910381919947
H     -4.438038460197    -2.245131322466     1.309490968886
O     -3.024082047745    -0.299062314703     0.680460312973
H     -2.350751112911     0.382906780364     0.441702790779

