# STO-3G

title

0 1
C      0.112380441818    -0.461962210960    -3.569604272355
C      0.913899081910    -1.528581451373    -4.023447447049
C      0.892976426381    -1.896640082761    -5.383702241455
C      0.073236167941    -1.196558372524    -6.291279946126
C     -0.725767463074    -0.127273173451    -5.838496697926
C     -0.706550305101     0.238378117743    -4.478220399430
H      0.106491518402    -0.168608852350    -2.525588102686
H      1.555296668606    -2.066470291857    -3.328970428938
H      1.512339871546    -2.719341386474    -5.734153576829
H      0.059589243340    -1.479733663005    -7.341542966723
H     -1.355348440582     0.416681421806    -6.539281234278
H     -1.321145847170     1.059347292245    -4.116354529426
C      2.179472518893     0.576195543516    -0.829145105605
H      2.791133098502     1.268230775381    -0.254017908218
H      1.853629510148     0.930725867008    -1.802694540437
C      1.804288744726    -0.635819891728    -0.355947919114
H      1.172186561456    -1.273643520910    -0.958360319896
C      2.176165214702    -1.186160048442     0.958208618623
O      2.894033870649    -0.514018531232     1.747552974555
O      1.723116894478    -2.474215030388     1.291876434955
C      1.949901647397    -2.882116118709     2.648657887338
H      1.521902666500    -3.895213570752     2.806941602337
H      3.038949046489    -2.919092999370     2.876518817692
H      1.445745402518    -2.187179724699     3.359777592731
Pd    -0.756229043810     0.569039501919     0.792392878215
C     -1.425468539429    -1.753688782350     2.303576246076
O     -0.656315889437    -0.632142501855     2.413842077804
O     -1.550291649240    -2.567224015925     3.234501867635
C     -2.154709444513    -1.991299937661     0.910163543863
H     -3.223213638194    -2.135381264593     1.123827059299
C     -1.613832170229    -3.222310823312     0.214323001567
H     -2.140200577442    -3.384789209902    -0.746893969246
H     -0.531148131294    -3.089974927447     0.013838017397
H     -1.754727048653    -4.115369405096     0.858542643616
N     -1.902561991837    -0.835244578734     0.070456043375
C     -2.293887070523    -0.235365755805    -1.022441455934
O     -1.719249754813     0.927613297274    -1.289860788286
C     -3.313167847870    -0.781993215904    -1.926457613741
H     -2.829664058970    -0.987728591256    -2.896875467159
H     -3.729137913952    -1.707840241922    -1.498031367036
H     -4.106757675736    -0.023829619257    -2.044719508337
N      0.379641714337     2.190480831908     1.330567068834
C      1.029489118107     2.270934263614     2.532491162399
C      1.812446788029     3.374588684940     2.810696927738
C      1.951459138593     4.387486178880     1.885255345554
C      1.294525630669     4.270486396539     0.686304662845
C      0.504200890522     3.130113022942     0.444401113226
H      0.927773188467     1.473265039409     3.259692253613
H      2.325924819800     3.430737742220     3.756524767383
H      2.571500206902     5.254073033748     2.098639524877
H      1.367181349406     5.016461261773    -0.079419163728
O     -0.059990759710     3.100419999984    -0.760389673861
H     -0.644155014007     2.319660961551    -0.985985165046

