# STO-3G

title

0 1
C      2.803205297117    -0.469145045869     2.723087382231
C      3.444877736012     0.372502872516     3.654620569511
C      4.164548639581    -0.184295684938     4.730730205597
C      4.243552614771    -1.584019859505     4.873470104659
C      3.600764254905    -2.424758777162     3.942312914485
C      2.876978836010    -1.870096345139     2.867991060942
H      2.230339410503    -0.045950663148     1.904088089716
H      3.388542499314     1.454983045371     3.547858251199
H      4.660616776061     0.466537296887     5.447724917659
H      4.802524872053    -2.014272847296     5.701824868761
H      3.661262789131    -3.505110850153     4.052732056869
H      2.356218470397    -2.508931797215     2.160575361416
C      1.529775738272     1.585079330808    -0.180689945329
H      1.068718739772     1.800636192249    -1.141262652776
H      1.883514536999     0.569168307079    -0.037720940891
C      1.642992791723     2.514154763918     0.796379673609
H      2.067504660538     2.245381652161     1.754366238445
C      1.189865023236     3.911143597327     0.690143221076
O      0.697816117600     4.334478486489    -0.391772303539
O      1.398688290725     4.769671390265     1.784293970418
C      0.878555291014     6.098617041381     1.642572555718
H      1.093525043270     6.678657991196     2.565439344018
H      1.356066154282     6.621528463816     0.783012926270
H     -0.225402962818     6.075052441875     1.495469832655
Pd    -0.682190785287    -0.285540486973     1.018176392245
C      0.043103232147    -2.759627135974    -0.198443340031
O      0.165089756473    -2.122646550378     1.002937154758
O      0.393121569449    -3.940398652240    -0.360934479746
C     -0.558423006012    -1.916362944095    -1.405066895936
H     -1.402684687058    -2.492052994313    -1.809998348791
C      0.472282773433    -1.708370990771    -2.494349233857
H      0.012646699855    -1.193728872582    -3.360678723491
H      1.308684411369    -1.093481945600    -2.104125843729
H      0.868695603939    -2.688334293359    -2.834478065588
N     -0.965384125614    -0.626428270881    -0.884356702489
C     -1.615855324600     0.468002489742    -1.182625957277
O     -1.770322764883     1.341444436949    -0.202877817247
C     -2.160973417561     0.732725444395    -2.518914000655
H     -1.318800241101     0.806303528341    -3.225750916245
H     -2.835164751368    -0.098226013042    -2.784600982725
H     -2.715589994056     1.688737964825    -2.490529612226
N     -0.499349192703     0.366888002857     2.962270824375
C     -0.097338893310    -0.439614039224     3.992741126189
C      0.074996749391     0.097292269641     5.252937074828
C     -0.151815757258     1.437598254351     5.480872341503
C     -0.566495267766     2.216147874136     4.430517820869
C     -0.739443534991     1.627835942046     3.162582087135
H      0.092726313876    -1.492048447433     3.815574530774
H      0.414245745953    -0.539166817083     6.053729285654
H     -0.003889634431     1.866477964568     6.468251877680
H     -0.755771613906     3.265563113770     4.537222254142
O     -1.121614803915     2.478348326696     2.215272130163
H     -1.324218460108     2.112156011057     1.303586668785

