# STO-3G

title

0 1
C     -1.554759522481    -2.424902538960     0.498914940688
C     -2.470410367087    -2.261548491666     1.558450646010
C     -2.727283114302    -3.324237129590     2.447093475795
C     -2.068799137909    -4.558086488505     2.277276100946
C     -1.152747852949    -4.723931914432     1.219699540437
C     -0.894446512285    -3.659831573863     0.333301220750
H     -1.354389865245    -1.604149373491    -0.184480817061
H     -2.984776151649    -1.312951006041     1.700297298760
H     -3.434229710633    -3.189222649460     3.262976123029
H     -2.267028240080    -5.379803454546     2.961982676962
H     -0.638391720215    -5.672848707571     1.087277597071
H     -0.177373661383    -3.790386412647    -0.472051588103
C     -2.455451277167     0.807190921925    -0.623658269383
H     -3.098983739058     0.109105884660    -0.095575199951
H     -2.475359523636     0.732950838228    -1.707993249469
C     -1.641984154344     1.690850308761     0.001679088575
H     -1.000705844958     2.347777203642    -0.568762039991
C     -1.506913807818     1.821574310463     1.462768640296
O     -2.231989904650     1.130916951942     2.228507104515
O     -0.506444676795     2.667439372480     1.976902008172
C     -0.409538020974     2.722719120950     3.407309090400
H      0.400165890312     3.426345301747     3.696707155581
H     -1.361898009008     3.089277783298     3.854064486388
H     -0.168751559327     1.719163305582     3.826581117865
Pd     0.681287521435     0.682933821578    -1.871304637127
C      1.824048630897    -1.643817917624    -0.615903702972
O      0.899513609762    -1.321354782784    -1.576491573693
O      2.291776510509    -2.780653846711    -0.488006071711
C      2.224416651952    -0.451742134549     0.340343452322
H      3.314231916379    -0.498403313954     0.473503076715
C      1.548712282350    -0.600960532605     1.687702361103
H      1.881176973594     0.204068443033     2.371853039006
H      0.447620710020    -0.537516854295     1.564002630804
H      1.804125004559    -1.583718424066     2.137188211802
N      1.784458211765     0.789216924582    -0.263957449595
C      1.949906028453     2.088492591578    -0.203510399411
O      1.308688534692     2.783115349878    -1.120293551758
C      2.783944011846     2.739388681201     0.813924894511
H      2.781190804428     3.826155276879     0.617917440864
H      2.335520295716     2.530174885395     1.798140091087
H      3.805934111751     2.330253373846     0.742291429272
N     -0.539129453772     0.593637655075    -3.532039057866
C     -0.827453863526     1.755759836145    -4.195160177688
C     -1.723101087918     1.743869604412    -5.244495746273
C     -2.323614999958     0.567822335243    -5.639868096980
C     -2.008057513519    -0.582674156801    -4.965248466308
C     -1.085477545621    -0.533708744475    -3.900245176266
H     -0.362305837107     2.684566565165    -3.884274592169
H     -1.950571596048     2.663965928962    -5.758034288088
H     -3.028890397703     0.552932503251    -6.466725232407
H     -2.435671689836    -1.531212993909    -5.224434318378
O     -0.859250059623    -1.694955924963    -3.324407007646
H     -0.142372414984    -1.728489960965    -2.587795861602

