# STO-3G

title

0 1
C      2.610556573467     2.044436700580    -1.891758960719
C      1.860285423093     3.163546081294    -2.306816091055
C      2.301602289029     3.945335181582    -3.392773327829
C      3.494324788171     3.609291755774    -4.064505968107
C      4.245720437931     2.491490515631    -3.649764242057
C      3.803819017865     1.710107067555    -2.563270117066
H      2.268281889471     1.438105034906    -1.058365635674
H      0.938887803890     3.418956415834    -1.788906152849
H      1.721839205407     4.808017293177    -3.711476996172
H      3.835808356700     4.213043028905    -4.901952283266
H      5.166845167511     2.231493741598    -4.165859736684
H      4.379775953434     0.844550649944    -2.242325038439
C      1.960314282431     0.219952775361     1.440841817015
H      1.870940774592    -0.015479312533     0.382345674460
H      2.647481562371    -0.412341730964     1.992966150873
C      1.246549583906     1.204303817667     2.033862843210
H      1.360424371224     1.400328886536     3.089512027458
C      0.262859104479     2.048792292750     1.341033216604
O     -0.022125754463     1.809130390742     0.137817382797
O     -0.411984885030     3.046002664524     2.066436295795
C     -1.362708388028     3.822290168060     1.320984003087
H     -1.839027932028     4.569318973996     1.991604043723
H     -0.862344526034     4.369427100611     0.490185683042
H     -2.165848528168     3.175411885002     0.898430436973
Pd    -0.933790269014    -0.449251356166    -0.292731781202
C     -3.504416866651     0.581756901606     0.410554074904
O     -2.627030843994     0.609139113968    -0.633062525125
O     -4.587306532157     1.190243101445     0.376908939981
C     -3.093913464653    -0.283926656716     1.676403262897
H     -3.855815368675    -1.071102503692     1.779215142423
C     -3.068307936454     0.547874651363     2.939897876306
H     -2.855143588052    -0.097424843117     3.814559549533
H     -2.277776602544     1.320117153245     2.861118002939
H     -4.049908996358     1.043886032288     3.090987318843
N     -1.767371406556    -0.823792172895     1.443213524109
C     -1.019092001933    -1.833574353447     1.810938202498
O      0.044541487215    -2.092000417042     1.080230550540
C     -1.324547173715    -2.645386318225     2.995740671854
H     -0.564633143443    -3.442762377507     3.078995373973
H     -1.283653457195    -1.985147017696     3.877194859768
H     -2.330607747164    -3.081191580295     2.871242705913
N      0.089374767114    -0.424167313997    -2.081788476881
C     -0.246775167851     0.418302700238    -3.104845002898
C      0.500806463110     0.412662440001    -4.266003500317
C      1.592395619162    -0.420306193723    -4.391067441909
C      1.900980035536    -1.255008762108    -3.345903453987
C      1.109927632059    -1.218188364029    -2.180803883749
H     -1.094719804394     1.085614071177    -3.000733278776
H      0.244698677617     1.091070485029    -5.062194696570
H      2.196437017718    -0.411480469893    -5.294000725835
H      2.738446523650    -1.921278213327    -3.377301030536
O      1.520919664354    -2.040059486711    -1.216745072325
H      0.987103156652    -2.075106655250    -0.366459080428

