# STO-3G

title

0 1
C      0.696626410691     2.949277021696    -0.848507390439
C      2.024757856259     3.301278031837    -1.165024050273
C      2.286249298551     4.212478374013    -2.208594485047
C      1.217271996900     4.774568574393    -2.934760699529
C     -0.111286984738     4.425224923399    -2.616261868422
C     -0.372637233181     3.511986235505    -1.575605182114
H      0.486094670993     2.233785198366    -0.060926228610
H      2.854123907341     2.865740619235    -0.608993529386
H      3.312146980993     4.482940516987    -2.450193544644
H      1.418173426989     5.481389730202    -3.737199348135
H     -0.935758312941     4.863739326521    -3.174615872024
H     -1.388134357741     3.221973544919    -1.322666207445
C      1.707934933881     0.130348679053     1.965341569258
H      1.116823364502    -0.663595209773     2.412089603583
H      2.523801723408    -0.199595938055     1.327595081879
C      1.462811089084     1.442556091307     2.181997646287
H      2.084163608414     2.193473943043     1.715730351259
C      0.362234099354     1.968877929291     3.005799437761
O     -0.487003731287     1.180445264376     3.507077067938
O      0.236522795727     3.361219925225     3.147706127272
C     -0.901670263276     3.818531427030     3.890689466314
H     -0.887734073854     4.929034702189     3.935881406315
H     -1.848131365346     3.504242277198     3.395701355441
H     -0.877462788892     3.427693632212     4.933255859399
Pd    -0.358457707761    -0.664794507215    -0.354742753297
C     -0.449775856575    -2.755013834127     1.652024998825
O      0.281166144294    -2.375460051454     0.555791552768
O     -0.099430841489    -3.677297386907     2.398474795383
C     -1.772988323502    -1.927901904766     1.888273025683
H     -1.755832871479    -1.602851955824     2.939486234918
C     -2.996624076145    -2.787581152862     1.655584230119
H     -3.913456974514    -2.212019189162     1.891950533067
H     -3.031488293186    -3.100825254177     0.591603296194
H     -2.961238871406    -3.688069137666     2.304233290449
N     -1.805826424758    -0.817921583935     0.955907678590
C     -2.322434759390     0.387955741360     0.880002619301
O     -1.855796296838     1.151440536990    -0.075329524938
C     -3.365166307884     0.861687153998     1.801100522259
H     -4.252537332014     0.221917596629     1.671301183633
H     -2.969009557779     0.788033815511     2.827995999100
H     -3.603480510385     1.911053467597     1.552532845446
N      1.238487135852    -0.476269095379    -1.659249091054
C      1.143580542868     0.414456686560    -2.695091943753
C      2.232963162874     0.640666953750    -3.510995606541
C      3.420294373723    -0.021757273836    -3.293774901156
C      3.484770808047    -0.917998483245    -2.259033664442
C      2.347220996407    -1.132599226880    -1.453301283339
H      0.213432929526     0.942248431103    -2.870699087051
H      2.151298762886     1.360139715541    -4.309351061971
H      4.283106171297     0.159694478519    -3.928969885052
H      4.374569824400    -1.475005256428    -2.042965907562
O      2.525812631897    -2.018441500551    -0.493494692462
H      1.693415215216    -2.288975052283     0.051517828083

