# STO-3G

title

0 1
C      0.201296393507    -3.305509747873    -1.778655154259
C     -0.812166811019    -4.088668546787    -1.189136632129
C     -0.567224766940    -5.439476180358    -0.871965113676
C      0.691141727925    -6.012077768710    -1.145284345188
C      1.704006941376    -5.232515077922    -1.738607603114
C      1.457388160188    -3.881838463455    -2.055646876890
H      0.010283224865    -2.266900144949    -2.035701466797
H     -1.782471655587    -3.642989777934    -0.982190214765
H     -1.351119965641    -6.041377510172    -0.417266096819
H      0.879931574992    -7.054937289911    -0.900063355816
H      2.675346946225    -5.673315288317    -1.952009552446
H      2.241477508650    -3.283778643876    -2.516227420885
C      0.561774376589    -0.939860562650     0.837542399165
H      0.338080709422    -0.534541869166     1.821006161896
H     -0.058227487981    -1.766035186928     0.499408065587
C      1.537520885276    -0.446788465664     0.042139572519
H      1.690640560506    -0.874311910765    -0.940075428448
C      2.432541381297     0.664423103499     0.397697783103
O      3.251636372603     1.078304033315    -0.467025219717
O      2.365978034542     1.236720137448     1.680841492829
C      3.196293213655     2.385878536829     1.899563722227
H      3.056588578838     2.748021351900     2.940397237728
H      4.271268574051     2.133429476872     1.758308660236
H      2.915696617748     3.214500001287     1.210662326263
Pd    -0.720750601726     1.476045789315    -1.146136544962
C      1.108329015297     3.662931557878    -1.119127017468
O      0.085253893928     3.156630913384    -0.369165388394
O      1.768507163150     4.650204107215    -0.754156279640
C      1.421529426044     2.930361985794    -2.494988846517
H      2.496483892378     2.701006916354    -2.508225164658
C      1.085745624794     3.819661915547    -3.672962378431
H      1.332187520290     3.303906549230    -4.622410767029
H      0.001658133080     4.055840225119    -3.661214042135
H      1.667086731858     4.763734855349    -3.613946948883
N      0.587545780553     1.744863545771    -2.564519207977
C      0.453159117996     0.609753511489    -3.194476456513
O     -0.510686986521    -0.189969689043    -2.763535587346
C      1.327055522170     0.183161301295    -4.293992659908
H      0.698788865309     0.048058887568    -5.190605790314
H      2.100035045169     0.949700860219    -4.467957692446
H      1.796552054282    -0.773098092495    -4.004736769947
N     -2.095266567882     0.920463216600     0.274821472742
C     -2.392052968921     1.705512181791     1.355365889872
C     -3.287160859918     1.249108107676     2.303338374338
C     -3.882164867889     0.011955959680     2.167630848970
C     -3.559222877526    -0.750627473289     1.073532858146
C     -2.641310472390    -0.247063204591     0.131647260760
H     -1.925518402070     2.678015696779     1.464901609753
H     -3.517847129979     1.869769027306     3.153888139555
H     -4.586931251348    -0.350776234496     2.911215142421
H     -3.981503549415    -1.721921535841     0.910593746072
O     -2.377249545577    -1.077453082842    -0.875129984136
H     -1.720418937673    -0.776186551159    -1.567469381733

