# STO-3G

title

0 1
C      2.669955456531     1.593164948800     2.953423377197
C      3.294474331582     2.645388673848     2.253063902584
C      4.607573247947     3.031606021772     2.587805925046
C      5.297911961057     2.367303705305     3.622650473322
C      4.671636939710     1.319271673296     4.326610107430
C      3.357082934638     0.933641501925     3.992762118056
H      1.664501601174     1.303581550186     2.672060606639
H      2.747513029323     3.140717581768     1.455962663033
H      5.087858922971     3.847234970431     2.051321260958
H      6.310189446040     2.668244275856     3.884129734833
H      5.199171903833     0.810033231009     5.130457544426
H      2.874978544693     0.127117337032     4.543073375966
C      0.078824672641    -0.783764881569     2.857640225364
H     -0.263729794808     0.216241024283     2.600038640872
H      1.132042007563    -0.878094707275     3.105617903717
C     -0.733473395768    -1.864985844970     2.875817809159
H     -0.328905243486    -2.835381706461     3.127560443798
C     -2.159973915601    -1.852659432955     2.514744671361
O     -2.679823884087    -0.804015949572     2.038177006529
O     -2.904734880994    -3.033660850428     2.668642741136
C     -4.220560098740    -3.023808239225     2.098703269761
H     -4.703966828035    -4.008517933475     2.275679838760
H     -4.851502388864    -2.235104066957     2.566981720243
H     -4.169999988476    -2.859924270494     0.997765956619
Pd     1.193433503160    -0.407022895789    -0.000999805267
C     -1.156149963758    -1.946504261206    -0.728073468979
O      0.155563595091    -2.131205874098    -0.376175426475
O     -1.968202607935    -2.879130874027    -0.779554129242
C     -1.548247546043    -0.457586889673    -1.059768349088
H     -2.508710592906    -0.262141793316    -0.561720854862
C     -1.719589609031    -0.258061069380    -2.549520464419
H     -2.034225095097     0.785308009094    -2.754152986431
H     -0.753875319802    -0.448430199618    -3.062000501991
H     -2.490507111255    -0.953285518217    -2.943098201665
N     -0.481039984348     0.414216166012    -0.609103794300
C     -0.377722196823     1.608536127230    -0.069237676355
O      0.790301420945     1.922696040740     0.425931040604
C     -1.520904631532     2.528335687172     0.013573707580
H     -1.871919062263     2.731748849153    -1.011339836669
H     -2.306359476234     2.036012446235     0.613377675343
H     -1.189258807634     3.460966025500     0.504453956267
N      2.874904819725    -1.310321720125     0.799965937660
C      4.014680980834    -0.568729515633     0.961638894080
C      5.096919852333    -1.105613436517     1.627642638333
C      5.043190164554    -2.384189443346     2.135754895728
C      3.895331303713    -3.109497825844     1.950813986392
C      2.812606148900    -2.532466774238     1.255222846879
H      4.063296471231     0.439872678269     0.568640892028
H      5.979559139346    -0.503148032072     1.767733008946
H      5.890296093131    -2.807222048354     2.668928207683
H      3.790574769212    -4.112651981294     2.313265922375
O      1.762360488002    -3.318462656462     1.140955128776
H      0.988438473121    -2.972466812019     0.554386864708

