# STO-3G

title

0 1
C      3.915837840377     2.454250030196    -0.014773611567
C      4.657787171305     3.405537243606    -0.742592304781
C      5.491583755142     4.318560137605    -0.066584606057
C      5.585429980517     4.276205224143     1.339008665504
C      4.846953107329     3.320376622248     2.065505400123
C      4.011636367024     2.407267393149     1.391219363663
H      3.281312678387     1.746232121209    -0.538336422651
H      4.588840400389     3.433768810567    -1.828472650321
H      6.063913733406     5.053236181270    -0.629019381780
H      6.230236955226     4.979189473981     1.862300248796
H      4.922460813714     3.284276063037     3.150123492285
H      3.442155895426     1.665296945779     1.945238767739
C      0.645095363829     2.623130955807    -1.757493602833
H     -0.188764924829     2.561228331940    -2.452953267835
H      1.608377944518     2.280003511425    -2.129022895416
C      0.529871633785     3.097886549911    -0.494707588603
H      1.397797157991     3.121087233326     0.147688230073
C     -0.718842409785     3.579657995156     0.117803345943
O     -1.800868835895     3.535810131058    -0.528844458646
O     -0.700798138702     3.944992273161     1.475052703125
C     -1.943786694938     4.408887786739     2.020052414764
H     -1.797207297940     4.681406099949     3.087697065538
H     -2.300096228414     5.313808626532     1.477206735112
H     -2.721500554815     3.614560129682     1.967748353430
Pd    -0.016874919591    -0.306371944028    -1.587218813448
C      0.825540367117    -0.028797146897     1.163042055246
O      1.349293182809    -0.337275120025    -0.059793209819
O      1.527327988821     0.207481939866     2.156051632612
C     -0.754584384783     0.011422804127     1.229454717443
H     -1.021104996562     0.935864911157     1.761241568811
C     -1.296693906583    -1.175052645830     1.996646479283
H     -2.398197297039    -1.093834390846     2.087640392541
H     -1.046990122611    -2.111116453977     1.455391738920
H     -0.853069405213    -1.207920441457     3.013947730193
N     -1.276657325081    -0.035411706939    -0.118537394181
C     -2.339690368607     0.263332483867    -0.828832833718
O     -2.200605642318     0.135793354881    -2.131835381622
C     -3.607539843866     0.692158321520    -0.225606342444
H     -4.320715417195     0.905403632163    -1.041323987696
H     -3.977316871961    -0.125963968160     0.411988413722
H     -3.417847061320     1.606218134080     0.361514097881
N      1.305072731799    -0.469682059056    -3.160103942078
C      0.797391379461    -0.549147779636    -4.428578617409
C      1.653752247544    -0.579529841086    -5.510317574283
C      3.018896071929    -0.535626570534    -5.324534510210
C      3.499131188752    -0.458037554065    -4.043094529645
C      2.594059105464    -0.430800240342    -2.962418080636
H     -0.275859419337    -0.581495011610    -4.579844509835
H      1.246897629376    -0.639756626153    -6.506687425571
H      3.697578071190    -0.560680915319    -6.173070355106
H      4.549033674092    -0.421070680958    -3.828627466815
O      3.164447007876    -0.342990278886    -1.779188716205
H      2.551277933983    -0.335860738628    -0.948321275422

