# STO-3G

title

0 1
C      1.743218350131    -2.457043100017     0.697022426893
C      1.936083509843    -2.595146538735     2.086516272356
C      2.752604929034    -3.627539499514     2.588858147921
C      3.376362248161    -4.529759459197     1.703642164408
C      3.182316988352    -4.396961578133     0.314300944652
C      2.367515687254    -3.361323259084    -0.186148239154
H      1.123015948095    -1.659548276132     0.299147162889
H      1.449689462750    -1.901371160715     2.768612207401
H      2.900757517632    -3.727062110119     3.662271470095
H      4.003902873966    -5.328450644464     2.093299762485
H      3.659017304184    -5.094496988795    -0.371066824609
H      2.217108815431    -3.260720727030    -1.258845146084
C      1.648100859107     1.689382205756     1.581787310305
H      1.797820182285     1.639894325034     2.658508356238
H      0.786472110845     2.258293289764     1.242879452760
C      2.454133048513     1.063453951178     0.695675754241
H      2.227915774528     1.110746341444    -0.361279844219
C      3.638825780025     0.264975897044     1.047869514979
O      4.023775103356     0.197000987235     2.246936529085
O      4.353016376849    -0.362260587171     0.011441992420
C      5.411420035339    -1.235568272417     0.429255365102
H      5.886814952650    -1.693817224973    -0.463700691669
H      6.190373895357    -0.673598805746     0.992576615883
H      5.014047423218    -2.056747062309     1.068933197806
Pd    -1.239905402669     1.679531495593    -0.179387938206
C     -0.999577238506     3.982812142498    -1.830266744544
O     -1.491097656307     3.630047071285    -0.603203223190
O     -0.981333219498     5.159800251281    -2.221675295393
C     -0.449736036108     2.808093869224    -2.750554682935
H      0.559355367793     3.096777836466    -3.076752047445
C     -1.329708211517     2.606814489580    -3.964807142758
H     -0.900324236098     1.822583594685    -4.619257983522
H     -2.344062147073     2.294699867854    -3.640338094693
H     -1.405233547861     3.552949345079    -4.541120805770
N     -0.458714507297     1.590059971117    -1.965782221420
C      0.016915450242     0.375822827135    -1.915689011534
O     -0.264658002448    -0.316059303425    -0.823030309724
C      0.851203232104    -0.195862905756    -2.978255566584
H      0.248971151334    -0.241678882991    -3.900406483912
H      1.730948370076     0.455682423220    -3.112044639811
H      1.166112429293    -1.210704188155    -2.674419968583
N     -1.858649439347     1.586498464674     1.780651898922
C     -2.565763314137     2.600566236561     2.368136135557
C     -2.910668061713     2.508058743249     3.702105215528
C     -2.548511849667     1.403702657226     4.445055600302
C     -1.838877426769     0.406284356964     3.826101994983
C     -1.506853211111     0.540114825563     2.464247874851
H     -2.852505871572     3.470217736756     1.787748551156
H     -3.466537090288     3.309287007709     4.161496210449
H     -2.816956437323     1.327013459871     5.495433676086
H     -1.522492034533    -0.476250553239     4.345973055989
O     -0.804463096638    -0.474465064625     1.971117357654
H     -0.547476930676    -0.431115989200     1.008908527914

