# STO-3G

title

0 1
C      1.473609975567    -1.389520026458    -1.600834851088
C      1.720732879086    -2.652302041605    -1.015546312123
C      3.025393444931    -2.983342828213    -0.611263960035
C      4.074515844553    -2.055632217848    -0.774345227504
C      3.826505991085    -0.795434962028    -1.354880212533
C      2.527522516484    -0.465126467397    -1.779284741765
H      0.509600990057    -1.209248897360    -2.106652831441
H      0.898650202389    -3.342776114251    -0.860009495279
H      3.218792723820    -3.952353168828    -0.158596668031
H      5.080658854181    -2.310455671837    -0.449253444636
H      4.635855705563    -0.080177253301    -1.476657582956
H      2.342034904467     0.494479088075    -2.254633866769
C      1.150096862298     0.344270870574     2.342319727928
H      1.897425223894     1.040078646283     2.722858050818
H      0.172394676145     0.774475735828     2.129159503528
C      1.388586228463    -0.986564380297     2.213391415240
H      0.611641648118    -1.641922329732     1.842739840540
C      2.658385907187    -1.647403264875     2.566197455523
O      3.642520284129    -0.957633426626     2.950097721049
O      2.719450871658    -3.052379268205     2.543356798684
C      3.972848753763    -3.632000761125     2.930515707788
H      3.900029082751    -4.739020595281     2.869403459002
H      4.789129652076    -3.296915574425     2.251451107060
H      4.227558073375    -3.357349268564     3.979267613825
Pd    -0.596747075977    -0.449690998770    -0.510038465360
C     -2.290841010772    -2.481493469968     0.570494160961
O     -0.994703079113    -2.278933253848     0.220744766944
O     -2.735586119204    -3.580252753537     0.945483731065
C     -3.184313333963    -1.203694527114     0.445769691185
H     -3.885142195607    -1.230043574928     1.290039249479
C     -3.978414682152    -1.205603083929    -0.842189315444
H     -4.603219347502    -0.290535115783    -0.896329025068
H     -3.287100953098    -1.219695258819    -1.708624550097
H     -4.637167539701    -2.098620869339    -0.883498536891
N     -2.310677940664    -0.016081949840     0.433990919732
C     -2.364989308843     1.079284286885     1.218806693945
O     -1.431850070089     1.928568305709     1.327499840501
C     -3.615679250488     1.325486795762     1.976363776105
H     -4.461685748614     1.312929376989     1.269206661147
H     -3.712750565202     0.552807837173     2.755975819957
H     -3.547189665391     2.319551386172     2.456407275259
N     -0.366050533014     1.420024752027    -1.335671703243
C     -1.321030064825     1.772087790433    -2.250972142647
C     -1.270726038632     3.008798801582    -2.861423238762
C     -0.275133209612     3.905360996874    -2.537679806594
C      0.648825298172     3.536434102057    -1.595752622126
C      0.546554011405     2.270303490393    -0.984855470886
H     -2.099495735703     1.066543192648    -2.516143435099
H     -2.018560678062     3.274563731839    -3.590168219424
H     -0.230093986889     4.883439394319    -3.009260690234
H      1.430727123007     4.195484051657    -1.275028258752
O      1.464355911432     2.045010936055    -0.059555458574
H      1.306825212775     1.249489551671     0.514524926429

