# STO-3G

title

0 1
C     -1.294795175121    -1.845643362485    -0.251355011374
C     -0.830613098026    -3.155310464398    -0.559427377054
C     -1.111934874169    -4.231406230096     0.293901309481
C     -1.836952738146    -4.011821816335     1.491756115313
C     -2.296453092285    -2.724118520803     1.816292548127
C     -2.050247089938    -1.646528099613     0.935321788616
H     -1.289133531133    -1.088723893873    -1.054550110422
H     -0.301773401271    -3.327824153343    -1.493222776923
H     -0.790379354640    -5.236201498514     0.029715030631
H     -2.057641147696    -4.849103256840     2.150547807705
H     -2.874194181538    -2.562703884559     2.723047380983
H     -2.496488406326    -0.674783287947     1.125112335136
C      1.712304710088     0.524357384852    -2.194355412594
H      2.685161432867     0.886128182542    -1.869468423596
H      0.917905395152     1.258413750661    -2.272576991754
C      1.461537084404    -0.777752928702    -2.471809186295
H      0.461012165515    -1.065650802266    -2.759050305591
C      2.459112457967    -1.859414126777    -2.392059095021
O      3.662244108137    -1.594807104904    -2.124690746133
O      2.030856625795    -3.185990241863    -2.579284140995
C      3.023563391940    -4.198075402027    -2.361976130482
H      2.573663522523    -5.199092018860    -2.534443826585
H      3.876504967426    -4.073228347427    -3.067364274289
H      3.401530543265    -4.159515453776    -1.314610447428
Pd     0.168986049433     0.032497580963     0.406225162466
C      0.349511749209     2.894892824968     0.947552375092
O      1.139313233090     1.790437552128     0.837472456634
O      0.783012552367     4.025682398083     1.204261887148
C     -1.153239261585     2.551634840316     0.712156466530
H     -1.618788493707     3.459637102833     0.309530622011
C     -1.850648566887     2.197785395871     2.007184050679
H     -2.915888102560     1.963403931100     1.803037588971
H     -1.368772417110     1.310199701430     2.465747713194
H     -1.796487336295     3.050444698976     2.716495599414
N     -1.233630541003     1.375695979940    -0.173551099647
C     -1.742948642463     1.327126402691    -1.420617691710
O     -1.575068338357     0.347953920666    -2.214634578930
C     -2.593092263380     2.447712286636    -1.887707918447
H     -3.003825351254     2.183039300273    -2.879643881765
H     -3.420018071585     2.578864853724    -1.169925812673
H     -1.973105323958     3.355464512474    -1.982498705653
N      1.824633303339    -1.077587731870     1.073254988378
C      1.659558713929    -2.362852536565     1.515483039390
C      2.756115381146    -3.159638741539     1.773010864697
C      4.030950867506    -2.667780510012     1.608251240078
C      4.176151764644    -1.364432735058     1.220981763770
C      3.032521884275    -0.577866893490     0.967557760670
H      0.669144268635    -2.749126168225     1.689066281985
H      2.607679433093    -4.172161944013     2.109402346853
H      4.899667985663    -3.291316977294     1.801103275571
H      5.139017979489    -0.914646500178     1.082251815843
O      3.298964876275     0.665856961022     0.641149503266
H      2.487470244220     1.316203719056     0.664125903406

