# STO-3G

title

0 1
C      3.020456353197    -1.620263275781     0.220737888046
C      3.023195155591    -1.852214175977     1.623116063830
C      4.162682044918    -1.501851846896     2.391987651347
C      5.291797772816    -0.956086964017     1.764321186370
C      5.290139074112    -0.720590267885     0.364334929426
C      4.162222372560    -1.042492990087    -0.400554839820
H      2.221155992231    -2.021993804923    -0.393609135738
H      2.187208902291    -2.376400920437     2.077085640533
H      4.165715963341    -1.691314396389     3.462156446853
H      6.177856214264    -0.719792387559     2.349374752840
H      6.173669357654    -0.306381733657    -0.116179054784
H      4.155324063436    -0.880678456576    -1.475252469473
C      0.998869082218    -0.935399977420    -2.455995429517
H      0.929301895358    -1.971922499049    -2.777892860143
H      0.622701455884    -0.724522920304    -1.459347108890
C      1.533333888817     0.054983162858    -3.205434543163
H      1.552810709519     1.063049731916    -2.812883975279
C      2.094672605547    -0.113761611289    -4.555700448910
O      2.127051585598    -1.256003092959    -5.088579167080
O      2.622573214971     1.012865333005    -5.210931408670
C      3.166778803892     0.779929586424    -6.517795229960
H      3.549067154179     1.736836314024    -6.933809408587
H      4.013540948758     0.057916019096    -6.470990105253
H      2.385195565742     0.388175230723    -7.207833179173
Pd     1.213213075340    -0.099485601716     0.886202272112
C     -1.224022441453    -1.621537840965     0.897080159313
O      0.111557292254    -1.759925618480     1.059582717901
O     -2.010226481780    -2.585251902981     0.876238799890
C     -1.730994461257    -0.144908679557     0.759961444000
H     -2.516738581189    -0.060637415527     1.521155122140
C     -2.359984456506     0.119158294538    -0.592262064227
H     -2.745809460730     1.157839266695    -0.634018230292
H     -1.617443537191    -0.014575530381    -1.402258897049
H     -3.204820257478    -0.581559336242    -0.762492161600
N     -0.622101395305     0.827085942588     0.974918707100
C     -0.665723199171     1.823642508430     1.935434990763
O      0.348226244964     2.284921590863     2.509905085877
C     -1.971536332248     2.478436641523     2.197812947878
H     -1.785454921826     3.389620446142     2.796312394279
H     -2.421081603127     2.762868539404     1.232115762274
H     -2.618681307038     1.799805051076     2.776525499269
N      2.227259295398     1.648536839109     0.456300530599
C      3.409035683051     1.966112970278     1.067329542404
C      4.131938365028     3.063130884347     0.638904489615
C      3.655005764579     3.860122217016    -0.379881320291
C      2.438660215376     3.551359361529    -0.932452922094
C      1.728984539774     2.434844812421    -0.448054575693
H      3.784068390409     1.348629467284     1.871994285750
H      5.070572737321     3.295540134033     1.113421658447
H      4.217967592009     4.725200473331    -0.719774337202
H      1.989734978106     4.152551012596    -1.696922098031
O      0.524795185313     2.257759926490    -0.979455355376
H     -0.042867466937     1.640757897406    -0.377044482133

