# STO-3G

title

0 1
C      2.585597693993     2.561773969987    -0.909239221850
C      3.367001887715     1.791548714144    -1.793347734621
C      4.761353828104     1.984069834717    -1.854600232423
C      5.375907065506     2.947469016800    -1.029262886875
C      4.595715106811     3.716383164382    -0.142651255583
C      3.201042792254     3.523185512823    -0.082863337030
H      1.512236702369     2.411701459763    -0.885038364083
H      2.881017608127     1.050619052920    -2.423529050882
H      5.363999650957     1.389521922078    -2.537863825258
H      6.452511961283     3.096485662846    -1.074964190015
H      5.068711723017     4.459265728604     0.495968411790
H      2.600088356830     4.123390810146     0.598653423475
C     -1.328792823887     3.671101658913    -0.126659196528
H     -1.110273528353     4.238044721482     0.774278865716
H     -2.048918157130     2.862677784769    -0.008135134497
C     -0.738473890399     3.899692036007    -1.320425571060
H     -0.973173202435     3.271025623202    -2.171191101099
C      0.271366787245     4.938822338915    -1.578423102414
O      0.656875360667     5.689245297539    -0.640687920921
O      0.841975263896     5.016251718562    -2.860395494020
C      1.979494970503     5.880892665290    -2.986269541104
H      2.345357224605     5.857556078145    -4.034996722617
H      1.710791885166     6.931444246851    -2.732930822475
H      2.808552508595     5.538741547896    -2.324843382486
Pd    -2.264768108651     0.494186225053     0.205831706079
C     -1.266189307342     0.499354291827     2.884695245123
O     -2.394469653527     0.707572603328     2.159996150108
O     -1.214196847394     0.643546605087     4.116279140685
C     -0.026858001346     0.069101490302     2.032896574462
H      0.453764089123    -0.740395015548     2.594744127507
C      0.970107150740     1.193790032296     1.884751972804
H      1.847891481894     0.842147238219     1.303906137880
H      0.503566915885     2.048545308977     1.357046027382
H      1.316676150933     1.532621778497     2.883853246188
N     -0.459021264695    -0.350957025531     0.666594386171
C     -0.351393235859    -1.647931805066     0.186665022694
O     -1.122320189146    -2.141386844746    -0.665076767434
C      0.847653772394    -2.423297610585     0.585783020465
H      0.928984289758    -3.301332285236    -0.081388888503
H      1.736968127866    -1.781712995007     0.459599272274
H      0.729720401916    -2.771965264727     1.624976172009
N     -2.091095820801     0.445503983843    -1.855871578304
C     -3.194792610040     0.258692635940    -2.644216544450
C     -3.083620851737     0.345117399747    -4.017552970370
C     -1.861497618915     0.589188341347    -4.606946759831
C     -0.765971608546     0.730882508912    -3.795823559013
C     -0.922098575178     0.617537280035    -2.400322972481
H     -4.161332583710     0.081504725771    -2.186996666189
H     -3.960219103336     0.213640939982    -4.630829992752
H     -1.767242656751     0.655870866315    -5.687652735482
H      0.217167221099     0.896776799923    -4.189063013879
O      0.197047591512     0.717450573951    -1.707885350032
H      0.081385895465     0.447298819661    -0.721724264726

