# STO-3G

title

0 1
C     -2.995852632270    -0.053167343546     2.603943341535
C     -4.306439161662    -0.492353215873     2.324475888410
C     -5.136809728619    -0.947987190046     3.367852923877
C     -4.661077460640    -0.966112998974     4.694319749560
C     -3.352706426218    -0.525735524148     4.976896675296
C     -2.524421716910    -0.068552143584     3.932610845581
H     -2.346225442494     0.308037519342     1.811977338695
H     -4.669351872310    -0.474272402877     1.300410270389
H     -6.147836895252    -1.285213679756     3.149068246239
H     -5.302898343967    -1.318743003043     5.498747802481
H     -2.982669884235    -0.538782724279     5.999636361851
H     -1.513425142413     0.269507191499     4.150025015292
C     -0.641304652132    -1.966032579162    -0.816238421226
H      0.309676056884    -1.826051037449    -1.323233560408
H     -1.500735897020    -2.147059359361    -1.456917077776
C     -0.780779972974    -1.933149322057     0.530636798659
H     -1.754771626012    -2.067676335460     0.979418936490
C      0.313205622801    -1.687842691013     1.485373410666
O      1.456335036038    -1.355054408482     1.066682691464
O      0.038619896100    -1.758649738977     2.861650554989
C      1.145500034669    -1.516218352102     3.740506177118
H      0.804407066948    -1.613491323084     4.793881415109
H      1.956728202113    -2.259719439319     3.568747323074
H      1.546854119555    -0.488068811762     3.597852279153
Pd    -0.679740519549     0.827336466910    -1.987963093142
C      1.814971185752     1.418636028769    -3.214334987555
O      0.591046277046     0.909751916763    -3.547529676353
O      2.686559090882     1.656524761522    -4.065977869607
C      2.084837009349     1.690523568505    -1.671747679063
H      2.463723628452     2.718361955035    -1.588385430055
C      3.118581680452     0.730584546818    -1.121956478700
H      3.381776411078     1.007136750951    -0.082678445507
H      2.708375963694    -0.301039404667    -1.124847603765
H      4.039046744204     0.761851298297    -1.741689080643
N      0.833935138124     1.498031104654    -0.963099279934
C      0.266791712803     1.626734144838     0.205970646167
O     -1.005286748529     1.276147438725     0.287394216217
C      0.981511837945     2.124501242431     1.386928531372
H      1.780126066020     1.402876786454     1.625764802319
H      1.399023201622     3.114541564490     1.140533934475
H      0.268457387643     2.197918943320     2.227824021310
N     -2.406358296804     0.139856363368    -2.866629648977
C     -2.516741343986    -0.066066082745    -4.215036294013
C     -3.702236120958    -0.547919990330    -4.735202611092
C     -4.773068923522    -0.817532774938    -3.908103654896
C     -4.628697712111    -0.596492299050    -2.561563124966
C     -3.404222110793    -0.100800837823    -2.074232667686
H     -1.676798534392     0.143093656043    -4.867839969725
H     -3.785538790193    -0.710429250454    -5.797643543183
H     -5.707864336060    -1.195669954409    -4.313601819605
H     -5.421007600835    -0.782997427521    -1.864411212537
O     -3.364851955849     0.071594332998    -0.755279694986
H     -2.526746591548     0.455915016528    -0.369066842675

