# STO-3G

title

0 1
C      2.771137086223    -0.860032853178    -0.792109761968
C      3.247705523740    -0.463231689222    -2.058048000737
C      4.103052067315    -1.316175775594    -2.784186891968
C      4.479225724062    -2.564214051704    -2.247620650808
C      3.999131731859    -2.961816810635    -0.983394493469
C      3.144936377408    -2.108816323588    -0.256718967855
H      2.118854305381    -0.200042129672    -0.227726358100
H      2.952346803936     0.498124665904    -2.470951635330
H      4.471906675756    -1.010073268637    -3.760354315031
H      5.140825442300    -3.220315393450    -2.808839040401
H      4.289400879448    -3.923918460396    -0.567479563707
H      2.771355878170    -2.410286974328     0.720420355742
C      2.199270791300     2.153596732488     1.412399299578
H      1.441953716155     1.752615753539     0.744793105755
H      2.547025530560     3.155118668599     1.176953836191
C      2.692701504958     1.476730804035     2.475091249067
H      3.441538240068     1.921730652854     3.114359215397
C      2.300164006378     0.111725271552     2.858505730055
O      1.434990444705    -0.509442678582     2.181364201272
O      2.916575747166    -0.479785550987     3.974607687924
C      2.454243359816    -1.791602770850     4.326358753976
H      3.018710542389    -2.155412035513     5.211565026693
H      1.373292521669    -1.772786715918     4.592616431852
H      2.617692762316    -2.508623506410     3.490600861685
Pd    -0.805835894858     0.138169820593     1.049908664512
C     -0.246586770594     0.933203373177    -1.634354094167
O     -0.433866469001     1.501025645453    -0.401188526395
O      0.124527859833     1.603912703943    -2.611699503022
C     -0.517315593394    -0.622511136793    -1.759913972184
H      0.363728975819    -1.067543005695    -2.239965190484
C     -1.744367083679    -0.899225910919    -2.600533420821
H     -1.886118134018    -1.992555927724    -2.712733848785
H     -2.637876384735    -0.466994045036    -2.104311753859
H     -1.626615246773    -0.445935651052    -3.607072285787
N     -0.751237485095    -1.137643592207    -0.429245781976
C     -0.720218545798    -2.238450178915     0.272701071489
O     -0.942917801996    -2.126035494931     1.572500406713
C     -0.448785584105    -3.547052838563    -0.333589473503
H     -1.245319299991    -3.756706402189    -1.065491223296
H      0.536548929546    -3.490519224576    -0.827265941227
H     -0.441390143474    -4.312256102659     0.463040592561
N     -0.897547737178     1.291682057600     2.761174816495
C     -0.871900086196     2.658352860911     2.742684760310
C     -0.926236972771     3.357303896270     3.932865084920
C     -1.005633618135     2.686064943749     5.135374746358
C     -1.025382928941     1.314368915448     5.117129945798
C     -0.964741312576     0.640966812891     3.880807133485
H     -0.811611447639     3.187256890690     1.798368657568
H     -0.906455083916     4.434456608534     3.914926811703
H     -1.048320484041     3.230946423435     6.074618058941
H     -1.078181294107     0.731856692423     6.014704696254
O     -0.958273453546    -0.686023954666     3.982352362499
H     -0.880864528785    -1.204393743635     3.125228864633

