# STO-3G

title

0 1
C      2.629424890974     2.105666440862    -0.505289819006
C      3.569471239757     1.473800926790    -1.344615652429
C      4.931861575381     1.825129727276    -1.269988545058
C      5.357663911719     2.807943196825    -0.353943356989
C      4.418843800305     3.440665888560     0.485288184229
C      3.056172132398     3.090594705192     0.407850731319
H      1.577678705883     1.847893520653    -0.577136400916
H      3.234268668670     0.714411852513    -2.047197624090
H      5.654440238066     1.338563707720    -1.921448735245
H      6.409370723876     3.079897950178    -0.295869821859
H      4.743514883722     4.204535167569     1.188617516309
H      2.330696010994     3.596860775005     1.042039183586
C     -1.038807781246     3.375958145486    -0.460231757199
H     -0.895301702954     4.007972659047     0.413380893361
H     -1.787026046646     2.597720012638    -0.360780931356
C     -0.310435519979     3.519792645892    -1.591827027417
H     -0.459716514500     2.847891947473    -2.428392384107
C      0.752912544393     4.519476736811    -1.785979219677
O      1.017221468988     5.345477712332    -0.869559355628
O      1.512867266896     4.469320096450    -2.966962100122
C      2.700727742596     5.272834688240    -2.978187056980
H      3.220681255158     5.146771742869    -3.951764676361
H      2.452904942596     6.350904005424    -2.850720788801
H      3.398353184516     4.952580086552    -2.170066337818
Pd    -1.205830982223     0.055345228582    -0.644423860779
C     -1.897356870131     0.163690668960     2.109132753187
O     -2.449177499269     0.456415050221     0.891412638783
O     -2.551538618996     0.215497585258     3.162280626851
C     -0.355612981950    -0.231582136063     2.127157994364
H     -0.263372338483    -1.156805291945     2.712115629646
C      0.475816899542     0.856992389511     2.772525521095
H      1.532335458576     0.533615119401     2.851826986366
H      0.424004570989     1.779444309570     2.157451183340
H      0.093336763380     1.074943157195     3.791830030679
N      0.076813942588    -0.389069468282     0.753454521860
C      1.069924719139    -0.759952703137    -0.005882397004
O      0.874189621491    -0.642191928776    -1.314014400470
C      2.335605788172    -1.277078282781     0.523574336945
H      2.972615016290    -1.579779351087    -0.326188339299
H      2.825776277858    -0.466815921091     1.088621059325
H      2.116204168693    -2.141235741116     1.173676302195
N     -2.313689938822     0.565099747656    -2.302414181043
C     -3.653268244898     0.840331708799    -2.253061868655
C     -4.310263525732     1.239270723857    -3.400090364481
C     -3.627882533439     1.361128757808    -4.592709219263
C     -2.286584751119     1.073677136146    -4.608507143021
C     -1.655609695469     0.665554044781    -3.417686601101
H     -4.191460327858     0.750684766426    -1.316129322852
H     -5.364556011300     1.459720134512    -3.356376368431
H     -4.140262784911     1.678498603238    -5.497130971602
H     -1.696821351618     1.151727193667    -5.500339119048
O     -0.352530301396     0.433496235473    -3.540075022779
H      0.142500197261     0.081405289634    -2.742455414852

