# STO-3G

title

0 1
C      0.195989601217    -3.273630758303    -0.475307526380
C     -0.825196595370    -4.140304011273    -0.915066629376
C     -0.751295999468    -5.518583739540    -0.631580610528
C      0.343499836862    -6.031742282053     0.092739275168
C      1.365585189835    -5.165952845629     0.531165809240
C      1.291946398688    -3.787768301599     0.246194139060
H      0.142577308009    -2.212049200056    -0.696571210372
H     -1.664414603147    -3.732822136383    -1.472574781198
H     -1.538357906076    -6.186574794315    -0.974037079734
H      0.401718545120    -7.095691577080     0.311063752349
H      2.213673972897    -5.560126016085     1.086543158102
H      2.084608206361    -3.121081648064     0.579989577423
C      1.694554786360    -0.353090554639    -1.417702985732
H      2.214003758579    -1.284037463060    -1.630491706377
H      0.915594673288    -0.080644095100    -2.125769576691
C      1.959248987787     0.422651833228    -0.339587816240
H      1.401935630431     1.334955892534    -0.181998469723
C      2.976551156879     0.120019039193     0.681386127802
O      3.675350693831    -0.926056179412     0.586657741847
O      3.117178097350     0.994148311591     1.773092230698
C      4.117933037212     0.639043268166     2.737351332369
H      4.137275444716     1.402384057995     3.544782874386
H      3.890787893356    -0.349307576959     3.197519657226
H      5.126580765130     0.605744239850     2.266440195894
Pd    -0.984410577661     1.684201784352    -1.568087501155
C      0.576040418358     4.064479369465    -1.597864829670
O     -0.074975688197     3.260033116328    -0.701102452733
O      1.269388071061     5.028022845013    -1.238480198486
C      0.404729354340     3.710566531793    -3.137864027419
H      1.411068620549     3.679468328282    -3.577902247332
C     -0.423231107859     4.757822066494    -3.850324891088
H     -0.512021827642     4.506048061806    -4.926158941883
H     -1.438505202792     4.794773119178    -3.403703971675
H      0.056377596198     5.754329544830    -3.750809984002
N     -0.287801591578     2.441398992834    -3.227278986917
C     -0.538705666072     1.438528538747    -4.024147556762
O     -1.196434386579     0.419381776646    -3.490810514824
C     -0.109127734399     1.389281070737    -5.426330036211
H     -1.013752602247     1.298170197820    -6.051583838626
H      0.444660995215     2.309449662424    -5.674980734358
H      0.537017670126     0.503229671877    -5.555153223229
N     -1.644887137120     0.604907715185     0.047831713624
C     -1.573898607283     1.075828824668     1.330811490740
C     -1.980045321990     0.270917429628     2.376401802674
C     -2.456030118494    -1.001357708213     2.137158537948
C     -2.519985124404    -1.439832972271     0.839349602093
C     -2.087007607016    -0.591013247909    -0.197177845430
H     -1.197635354734     2.074242910998     1.522906608204
H     -1.915100644337     0.642270496029     3.386077576221
H     -2.768394581024    -1.642397826550     2.957274655527
H     -2.860758098953    -2.424757599497     0.589603641238
O     -2.150480822723    -1.130276604318    -1.411221451239
H     -1.809045119991    -0.598609294863    -2.187898136097

