# STO-3G

title

0 1
C      3.004597339903    -1.027335051663    -0.753115334679
C      3.184337160080    -1.704018514503     0.485329364781
C      4.367260150606    -1.498322288917     1.239128844233
C      5.366413465334    -0.641291440533     0.754914665702
C      5.192587392122     0.032646168311    -0.481493855260
C      4.024493353688    -0.156897867469    -1.227976816987
H      2.172166997505    -1.283751353141    -1.403135062954
H      2.438750224625    -2.425348203606     0.803888115483
H      4.505838187318    -2.031484014991     2.175985459110
H      6.283923861685    -0.496760814476     1.320806460171
H      5.971363867284     0.695298194231    -0.851588093203
H      3.894164644343     0.360974504539    -2.174052756007
C      0.001413083437     0.283820042929    -2.564111948705
H     -0.416120403132    -0.718577861213    -2.626880765693
H     -0.471888941074     0.956015169066    -1.856412191976
C      1.066964138790     0.697213150341    -3.289933100128
H      1.457206818955     1.693718637857    -3.132165527894
C      1.786892408665    -0.126845803516    -4.275070652339
O      1.411063693994    -1.307991539511    -4.505833306285
O      2.948838315300     0.397723401668    -4.868657230864
C      3.657247735148    -0.487649272485    -5.747373096208
H      4.550032666561     0.033600249178    -6.154715329675
H      4.003217960309    -1.394032936895    -5.199872574377
H      3.013410285001    -0.795768121742    -6.602320901371
Pd     1.144387293168     0.060226589235     0.410500697371
C     -0.796219220941    -1.829494028225     1.164038881566
O      0.268175712741    -1.736100214022     0.337854220043
O     -1.141237683488    -2.880498615390     1.734491395056
C     -1.622889254574    -0.512659687105     1.290692766093
H     -1.955797192656    -0.441224713747     2.335087419387
C     -2.835247660909    -0.617923286321     0.374656791011
H     -3.544397453475     0.214198217837     0.537058508025
H     -2.501270225090    -0.613074826462    -0.684105542668
H     -3.381699914468    -1.565076896434     0.572039376918
N     -0.778412782177     0.641939234747     0.870622469469
C     -1.173854384224     1.891095780809     0.665243822243
O     -0.585408530182     2.737437103249    -0.103822507939
C     -2.343980680670     2.444901146305     1.384018754736
H     -2.019914199394     3.386926092317     1.861020726299
H     -3.127777701149     2.661905536446     0.638772599302
H     -2.706915936227     1.761290632944     2.166753707555
N      2.267225335678     1.768473878155     0.744046761778
C      3.128334196485     1.645302570363     1.801334829259
C      4.181465004218     2.526220144750     1.942904785547
C      4.383167759116     3.528906110280     1.020276822542
C      3.495042235562     3.648603598924    -0.015544037434
C      2.412192517501     2.747812707195    -0.111731332836
H      2.990616434924     0.844165795508     2.517873694192
H      4.861197655734     2.410280589588     2.770402794893
H      5.218649347226     4.216600783109     1.119243039986
H      3.577417412412     4.421429464102    -0.752775681262
O      1.574610864124     2.969518969204    -1.091107154058
H      0.540455208388     2.736137477775    -0.753281656157

