# STO-3G

title

0 1
C      2.114160182765    -0.597668949328    -0.173639959680
C      2.644079974900    -1.817541484138     0.294555678191
C      3.650694628417    -2.476793106572    -0.438040059568
C      4.130195117688    -1.919259021292    -1.639787201282
C      3.602430538987    -0.699368959753    -2.107659563692
C      2.595739627508    -0.038824248883    -1.375701047027
H      1.334108863915    -0.102313014125     0.398203119752
H      2.274987673291    -2.253009133042     1.219107182163
H      4.055550079554    -3.417654260417    -0.072406984817
H      4.908552257661    -2.428198159288    -2.204353661122
H      3.974261055142    -0.265232569011    -3.033349198374
H      2.195569846782     0.903558876120    -1.741056535508
C     -0.590961642785     1.730938720939    -0.776624091577
H     -1.573873645313     2.049475521020    -1.113087871066
H     -0.307157783916     0.714814650469    -1.034866354237
C      0.252062935366     2.523529450486    -0.071366296404
H      1.205175570482     2.137662642056     0.266924410820
C     -0.026480267597     3.913413535482     0.327541623634
O     -1.136512291827     4.442722066229     0.046332480879
O      0.958385324477     4.617667032284     1.042033251176
C      0.610570875186     5.950489723959     1.441116250854
H      1.460596548709     6.401319568603     1.996874263329
H      0.398420899818     6.586882282109     0.552190386009
H     -0.278486314691     5.942209324659     2.111237605081
Pd    -1.812670017145     0.045567709059     1.255570039154
C     -0.591068247174    -2.570251549615     1.352267379758
O     -0.443674143689    -1.323506625091     1.898338648199
O      0.002495375796    -3.566157583222     1.783768698546
C     -1.552623353833    -2.638236685605     0.101863847685
H     -2.227960245368    -3.489875993523     0.269154755943
C     -0.760502795173    -2.873256445851    -1.167811852492
H     -1.443564085417    -2.969601793178    -2.034643574373
H     -0.076071257792    -2.018807428100    -1.346249842602
H     -0.160083108070    -3.803065152619    -1.077914036977
N     -2.257426128531    -1.376746416245    -0.017737207447
C     -3.322452189103    -0.840896477059    -0.570872528725
O     -3.596247700389     0.389007108036    -0.204967652764
C     -4.178960514770    -1.548035897159    -1.533533032282
H     -4.150735830318    -0.984513240798    -2.481549100123
H     -3.809233390747    -2.575484881101    -1.676661751578
H     -5.205348230042    -1.560406205691    -1.127026390636
N     -1.363847458314     1.529094165252     2.618272750684
C     -2.147016197168     2.651985447218     2.620216115021
C     -1.849620866682     3.694117527654     3.474706367427
C     -0.769599870855     3.614445420221     4.326883856527
C     -0.006612289178     2.476221833107     4.306466138529
C     -0.343414564888     1.429625570773     3.423615638262
H     -2.990061139926     2.724368291087     1.942058595574
H     -2.465864389500     4.578113487913     3.460971923691
H     -0.527248113818     4.435067783877     4.996574459869
H      0.849359083065     2.351958305295     4.939256894022
O      0.467757215861     0.392834281689     3.475567350222
H      0.229066873965    -0.422795388060     2.896320859502

