# STO-3G

title

0 1
C     -0.789108578046     3.315212224906     0.221752558159
C     -0.504916112125     4.344566542074    -0.699022164167
C     -1.445730450139     5.369390365268    -0.927864468160
C     -2.671612200514     5.365801223197    -0.232659021190
C     -2.954893392225     4.338239450985     0.690582999061
C     -2.016120962839     3.312235133702     0.916937655035
H     -0.079395902365     2.512617997805     0.391717439994
H      0.439647811574     4.348038471135    -1.241789489980
H     -1.223637670600     6.162953155156    -1.638431276367
H     -3.396058925412     6.159028796677    -0.405432119210
H     -3.899619344826     4.339800066080     1.230364834102
H     -2.219924268978     2.506577514599     1.615992448130
C      2.560580321168     1.295874942694    -0.619695435297
H      2.838301141658     0.251280709758    -0.517344942572
H      2.353446708774     1.623297662643    -1.635254499390
C      2.480332774216     2.147396438569     0.427912142979
H      2.204191828192     3.179330421964     0.266901637413
C      2.715457268707     1.779544116122     1.833704261377
O      2.912451581051     0.573006987850     2.148932627501
O      2.625163283674     2.782537323003     2.813984001646
C      2.814153511040     2.357446056988     4.170646302972
H      2.730177183726     3.236758357319     4.845363846204
H      2.034940912820     1.619407762931     4.465813537062
H      3.824408591480     1.909290599428     4.308322965373
Pd    -0.215755107355    -0.316532898978    -0.635903168764
C      1.896479835969    -2.304069423328    -0.671996205210
O      1.197551613314    -1.490021163965    -1.526179161543
O      2.879393441322    -2.961239691572    -1.036097773911
C      1.350752378996    -2.340248795043     0.807805291447
H      2.213411867054    -2.148372060903     1.463530490100
C      0.770970875898    -3.698785116410     1.137399716674
H      0.454705282839    -3.727117312715     2.198960715245
H     -0.111636016701    -3.890188112134     0.492661891107
H      1.530448107376    -4.490808152943     0.967890245115
N      0.303038682778    -1.346607912976     0.948220077512
C     -0.214877925828    -0.599392709926     1.897169695170
O     -0.982819833555     0.382185552656     1.499630194543
C      0.043057476060    -0.842716564572     3.323581265977
H     -0.356037518203    -1.837839328834     3.577134494853
H      1.133571488795    -0.801179943132     3.482887041959
H     -0.466126679787    -0.058792007274     3.911968556046
N     -0.668424704857     0.825224091513    -2.302614001640
C     -1.778310858534     1.626856505665    -2.271223446296
C     -2.040194313865     2.482039871451    -3.321762482468
C     -1.193694282364     2.539185256763    -4.406140081508
C     -0.097102455902     1.717344836078    -4.418783784604
C      0.132541589550     0.847651540261    -3.332437683248
H     -2.447712028096     1.590187640385    -1.419670700480
H     -2.905415148088     3.122990244887    -3.274677090158
H     -1.392031361997     3.217200224752    -5.231853758536
H      0.595250209752     1.704521651138    -5.236840267600
O      1.214747224898     0.105461239925    -3.456022688162
H      1.370864013202    -0.615915228733    -2.736405429044

