# STO-3G

title

0 1
C     -0.077228784037    -1.058539644540    -3.296741220665
C      0.500308006800    -2.340124527514    -3.203952764686
C      0.614942743439    -3.148722368502    -4.352229843362
C      0.153320181173    -2.673939576203    -5.596395918220
C     -0.421475693176    -1.390267542102    -5.691186006526
C     -0.536572463653    -0.583729992657    -4.541519200807
H     -0.172486060994    -0.430165154788    -2.417879374763
H      0.861093742024    -2.701880761293    -2.243468317347
H      1.059473928763    -4.138785413741    -4.278730510447
H      0.241448657396    -3.297780613979    -6.483274681721
H     -0.775815246089    -1.022661320272    -6.651809848440
H     -0.979082490207     0.407850997795    -4.605892701069
C      1.546126748318     1.644952133693    -1.601276381988
H      0.476201463981     1.449093837488    -1.625036444987
H      1.880260908370     2.496440609541    -2.191581476662
C      2.431962148399     0.907065024107    -0.890494335106
H      3.480401810027     1.171100169251    -0.881133672157
C      2.081869704406    -0.271838857943    -0.082298380654
O      0.905979714104    -0.723977375784    -0.105873103166
O      3.077177983569    -0.876585566162     0.705011589046
C      2.649974521274    -1.998528656828     1.492517974646
H      3.506361866224    -2.380305020853     2.088531778756
H      1.838038471452    -1.705437452325     2.197847841860
H      2.283957246884    -2.823327002281     0.840258992136
Pd    -0.887611001886     0.682205961121     0.819705458533
C     -1.918952576422    -1.690166536171     2.013347011281
O     -1.041584912342    -0.679427182352     2.287169610257
O     -2.169374331524    -2.578522443242     2.846372924744
C     -2.580960419258    -1.677768391369     0.583760926871
H     -3.660885074297    -1.824248873583     0.726946245706
C     -2.032282867033    -2.804209389363    -0.269536538100
H     -2.521884870153    -2.811428798096    -1.263345266065
H     -0.942281689495    -2.652177934332    -0.411835320895
H     -2.205846939021    -3.781254466593     0.227430321723
N     -2.259908616149    -0.413820440572    -0.052307115028
C     -2.508740379874     0.245619361138    -1.162384840736
O     -1.801488549980     1.315464042052    -1.395978245418
C     -3.566955557884    -0.163851223589    -2.101282832894
H     -3.081160140982    -0.444114070678    -3.050425108744
H     -4.126652964199    -1.014772305538    -1.683013924427
H     -4.237762568806     0.699711352582    -2.249499714643
N      0.520119637023     1.853856949774     1.824532245516
C      1.160618596479     1.388661277558     2.942311267734
C      2.147808776151     2.156252897827     3.533481548812
C      2.476080317804     3.393288360815     3.021021037982
C      1.797526433726     3.843528543540     1.915418175646
C      0.797250887402     3.015147853987     1.352572244536
H      0.918799132471     0.415771307049     3.350132572111
H      2.656363908000     1.778520079618     4.405370098026
H      3.244380473971     4.001905359610     3.490666952321
H      1.985757312677     4.812849245658     1.504188226325
O      0.094875402615     3.463026845661     0.297328652961
H      0.546427885150     4.090118239172    -0.294045391735

