# STO-3G

title

0 1
C      0.422731123656     2.757456396731    -1.627769527365
C      1.709025029799     3.156124869236    -2.048519469303
C      1.957166187838     4.505251741968    -2.371075899732
C      0.923472083953     5.457921988981    -2.276868086677
C     -0.362541419221     5.059177247461    -1.861900490728
C     -0.612728252356     3.711015726687    -1.538643921774
H      0.231324864055     1.713297652471    -1.390048374292
H      2.507099471443     2.422971838232    -2.125454164620
H      2.949733134045     4.807828790307    -2.696757407364
H      1.115992985768     6.498333176289    -2.529408141074
H     -1.165001379945     5.790498145336    -1.795849370516
H     -1.609585129636     3.408947563346    -1.228313373349
C     -2.109814969327     0.901833610670    -0.246749194446
H     -2.041256408805     0.777641225214    -1.327503438377
H     -1.319840016277     1.484246046356     0.215345423533
C     -3.092048043736     0.359423667722     0.509017034747
H     -3.060305193721     0.489839200417     1.581062305948
C     -4.212235792443    -0.438181999278    -0.019132591707
O     -4.361451390295    -0.575175714203    -1.263782573622
O     -5.091226506258    -1.049705141679     0.893036438168
C     -6.140629176634    -1.838752717718     0.315276484892
H     -6.765337645657    -2.271859981280     1.125624438685
H     -6.795569808203    -1.212043412474    -0.331863945134
H     -5.719332945419    -2.675371512914    -0.287312262083
Pd     0.058798666389    -0.689301192863     1.168954946450
C      2.491395748959     0.392548207774     0.020219792287
O      1.558559236803    -0.582119681075    -0.206848483018
O      3.436965143940     0.602078962695    -0.751005370828
C      2.263838764577     1.241702391134     1.328804571352
H      2.265719373749     2.295880247587     1.015477339879
C      3.381212837261     1.013442527577     2.324203532705
H      3.246274068098     1.671687875900     3.204930431178
H      3.369871110592    -0.044763528303     2.658413319376
H      4.362553961915     1.240143186413     1.856499061295
N      1.011403081311     0.838959899227     1.938493592385
C      0.113850971781     1.281196659151     2.790140322410
O     -0.957315036351     0.542263586653     2.933428510665
C      0.269716386161     2.555567257317     3.504588963783
H      1.157202077397     2.480486670864     4.153271474637
H      0.390951078415     3.354922313738     2.754291949658
H     -0.636004135860     2.730719157479     4.113242624110
N     -0.984120364075    -2.237948462339     0.284004983499
C     -2.002928073994    -2.821479979230     0.987197019923
C     -2.812213765067    -3.757884649319     0.377898050101
C     -2.601044610165    -4.114865581663    -0.936569965991
C     -1.563413834178    -3.527805356898    -1.611903949899
C     -0.759230085431    -2.572692702113    -0.956915162221
H     -2.181542770586    -2.534367901849     2.017242000542
H     -3.620527450940    -4.201320135876     0.935326090709
H     -3.240674385000    -4.844727426079    -1.425352695569
H     -1.348536726577    -3.756184232840    -2.636710851520
O      0.195873121617    -2.060927613038    -1.706440369227
H      0.857469910338    -1.420883202832    -1.250502766726

