# STO-3G

title

0 1
C      1.933612847823     0.994558674105    -2.000656730367
C      2.408122893938     2.278100118225    -1.611402651282
C      3.679656387842     2.422041848679    -1.046239545841
C      4.507518143609     1.285990870728    -0.858834207722
C      4.066120093403     0.016328167121    -1.255470366710
C      2.782748398791    -0.135186694843    -1.840582650443
H      0.988970482385     0.896820587739    -2.528380041989
H      1.768734134382     3.145239923734    -1.758354969795
H      4.037441243992     3.407310538504    -0.757130139798
H      5.495991485435     1.405490244849    -0.421631364270
H      4.709677883460    -0.851019092414    -1.136879941353
H      2.479781041878    -1.092306074485    -2.251754669618
C     -2.946215993928     0.255396680609     0.202596403356
H     -3.313037408219    -0.403218081140    -0.579668415567
H     -2.822064142671     1.294166736534    -0.084385706211
C     -2.601464810174    -0.181586988674     1.434944662968
H     -2.208842407777     0.512463612307     2.166873069273
C     -2.702747249013    -1.577661702180     1.886006662373
O     -2.951391559466    -2.490912186690     1.047214519778
O     -2.635096435161    -1.846042339342     3.264286958040
C     -2.739398593856    -3.225707719727     3.641774322224
H     -2.661054657978    -3.310963638276     4.746484399878
H     -3.718071657084    -3.651062667397     3.325379345092
H     -1.913365846392    -3.822334002941     3.194242260581
Pd     0.908978735444    -0.302269278372    -0.101942028885
C      0.279310064709    -2.847806690272     1.029034202492
O      0.368032619689    -1.543018094521     1.407068818358
O      0.281843958381    -3.784502640502     1.848603284964
C      0.161658201363    -3.087719749675    -0.523520005702
H     -0.731909822543    -3.709229241241    -0.677332247529
C      1.364354151763    -3.825653225621    -1.065240515731
H      1.253290713577    -3.965220815404    -2.160106395160
H      2.283324998228    -3.237773522108    -0.867400781673
H      1.453213247891    -4.819343956507    -0.578017150574
N      0.100635906032    -1.781599219978    -1.182902935686
C     -0.869799053310    -1.253802108239    -1.926686445712
O     -0.997737576513     0.021311300628    -2.104509103115
C     -1.820315491460    -2.148485966645    -2.616669112202
H     -2.459396823894    -1.540354775988    -3.281680266160
H     -1.240729758578    -2.876479464074    -3.208370224130
H     -2.448032039764    -2.649864941393    -1.858107989412
N      0.857939848275     1.426091886877     1.027554356616
C      1.510220996161     1.637689305740     2.209326631059
C      1.297576067822     2.810431611805     2.906435468391
C      0.427615528536     3.764137340069     2.422320131387
C     -0.222122263767     3.515783106443     1.240160050439
C      0.016075246236     2.302978015793     0.560485780493
H      2.197780433825     0.890495198444     2.588523760208
H      1.815899219522     2.974077437828     3.836760537521
H      0.256568970018     4.688326249823     2.967807271379
H     -0.917059541743     4.212030825889     0.815725030786
O     -0.685609759727     2.167287690378    -0.554569842202
H     -0.733085243985     1.277663585719    -1.076309704411

