# STO-3G

title

0 1
C      3.560172571205     2.211071852582    -0.518388384099
C      4.351003273903     2.929128670189    -1.438302606045
C      5.746969042571     3.006200425489    -1.260226315317
C      6.350158397156     2.363647328077    -0.160451564056
C      5.558427832493     1.643346045185     0.757283582371
C      4.163108345431     1.561605031840     0.578447498596
H      2.487908122099     2.130834751270    -0.660935984800
H      3.885191816453     3.427210973490    -2.288183786770
H      6.356339997138     3.562890089638    -1.969083810150
H      7.427252798033     2.425720357351    -0.019760534246
H      6.025175849898     1.148660761047     1.606127549105
H      3.543873497643     0.995186969994     1.268259660287
C      0.165264177379     3.308593411156    -1.560777725444
H     -0.745446701023     3.312835959721    -2.154849380497
H      1.084590810894     3.131541317659    -2.113553582765
C      0.179104142985     3.486115460711    -0.219152757601
H      1.111159339987     3.438578021138     0.324524572347
C     -1.014020130322     3.715729028112     0.612159197885
O     -2.158661731453     3.749756916613     0.082695017521
O     -0.857783768169     3.782155454262     2.007180168577
C     -2.052471260597     4.017979479096     2.765111302280
H     -1.799354318564     4.052980976352     3.847084719691
H     -2.511939218879     4.992888179629     2.484555258693
H     -2.791709316626     3.200928118335     2.606977995057
Pd     0.316360251109     0.111213660677    -1.103920159223
C      0.458208988966    -0.044309414311     1.741985974157
O      1.285433434882    -0.124460492409     0.660135142223
O      0.888468096438    -0.051028322441     2.907958161978
C     -1.100172789935     0.050877122597     1.449208325595
H     -1.497054056821     0.875722428900     2.056478567967
C     -1.804810101028    -1.233968610210     1.828717690115
H     -2.893739618843    -1.140220205592     1.645204232026
H     -1.406467289316    -2.069269984898     1.216329318140
H     -1.637643838634    -1.455976118103     2.903662207299
N     -1.267443077829     0.265063873846     0.026468880670
C     -2.134729671701     0.605443477438    -0.890126663366
O     -1.679211597561     0.647135083586    -2.133410045878
C     -3.540035272289     0.916702681539    -0.604181229005
H     -4.164827625375     0.170354555465    -1.121998880808
H     -3.707642525122     0.891730593293     0.484045141819
H     -3.746576507897     1.929773532134    -0.993763466363
N      1.815204055855     0.117048836356    -2.515338207932
C      3.076840354542    -0.356201605744    -2.273546890963
C      4.041147863136    -0.262213464501    -3.257021895615
C      3.745583864528     0.307354555995    -4.476789595008
C      2.470716040938     0.767405581172    -4.689596891247
C      1.513896721490     0.645817835179    -3.662994403430
H      3.317096012535    -0.792769876451    -1.310569154134
H      5.037689169220    -0.618082703174    -3.052252959206
H      4.504966772659     0.391372738570    -5.249558409299
H      2.174535925642     1.217899647045    -5.615809216500
O      0.318354273354     1.140283936641    -3.972243568177
H     -0.425042596109     1.034404791853    -3.307052182238

