# STO-3G

title

0 1
C      1.419739427136     1.467457908668    -1.961960949565
C      0.436563504600     1.794455826673    -2.939407791707
C      0.511828828934     1.211505302906    -4.234845640047
C      1.550685312777     0.329025214765    -4.545969386070
C      2.535498330226     0.015155849316    -3.575901844324
C      2.472099376891     0.578348748488    -2.298962773041
H      1.448399521704     1.953077440795    -0.994619434368
H     -0.288637463931     2.584051546434    -2.767565321319
H     -0.234204007739     1.470609709019    -4.981907905013
H      1.604963391092    -0.121293966446    -5.533834793607
H      3.334407089776    -0.677635367018    -3.825277995761
H      3.220242767156     0.325637618182    -1.552975284374
C      1.008385626466     0.492445931350     1.264063856662
H      2.049673526693     0.703109074822     1.023819269533
H      0.592646148753    -0.416468244679     0.837440328903
C      0.244151852532     1.278919222290     2.058314711202
H     -0.778277766894     0.979803434152     2.240178125877
C      0.695442242435     2.523231965918     2.701866354928
O      1.815769042677     3.015166758446     2.394775744890
O     -0.212782143450     3.233779218622     3.506022885495
C      0.269084973563     4.465912164854     4.060190626062
H     -0.529443811207     4.926802373675     4.680623582787
H      1.155098110802     4.286923102336     4.710781714400
H      0.541087058341     5.183509000202     3.253364179042
Pd    -0.716864995227     0.225084248483    -1.386448823526
C     -0.429048886936    -2.496066159432    -2.249725678815
O      0.307926482448    -1.389153747186    -1.997918827860
O      0.053840067395    -3.560502956493    -2.679918638448
C     -1.948662371833    -2.305181673408    -1.951482511317
H     -2.362754722364    -3.286210200001    -1.686523058032
C     -2.689595796646    -1.807297966139    -3.173942036943
H     -3.772383182637    -1.714540525722    -2.946744649887
H     -2.298597266157    -0.815279815423    -3.481153798241
H     -2.562090042459    -2.522455045929    -4.013904940837
N     -2.091094632282    -1.274930529950    -0.886619664671
C     -2.157802638265    -1.568048079500     0.465180475709
O     -1.925632380121    -0.723233165869     1.358431278822
C     -2.617020946759    -2.915454012783     0.878322203193
H     -2.716407146240    -2.926272045399     1.979749087923
H     -3.602585080864    -3.102923979053     0.419484430362
H     -1.864067142976    -3.663775868922     0.575814135235
N     -1.889276740171     1.828694378800    -0.694095460901
C     -1.341644736527     2.986232727350    -0.203068486898
C     -2.152202503339     4.033185510639     0.183408359204
C     -3.521533629466     3.926481180794     0.101008766767
C     -4.052300541572     2.754021716077    -0.363614640364
C     -3.191387987650     1.697946146713    -0.730183669022
H     -0.270096722381     3.099554057362    -0.136030485684
H     -1.704780326652     4.936426740979     0.565015735168
H     -4.164549713760     4.745977242228     0.410850901724
H     -5.109671569156     2.591257158072    -0.421066684012
O     -3.802153771949     0.593374864481    -1.086197775126
H     -3.141995394686    -0.256160778692    -1.069344533235

