# STO-3G

title

0 1
C     -0.493905909247    -0.578429232890     2.273801709635
C     -0.034194531186    -1.718070745587     2.987518620703
C     -0.763848869551    -2.913378837618     2.953512450779
C     -1.954698474968    -2.997286085847     2.185124594722
C     -2.425087860230    -1.878064874873     1.485579546292
C     -1.710586245303    -0.652267162715     1.542946997999
H     -0.000789846296     0.379431789712     2.392947919101
H      0.870696539014    -1.637506175898     3.586349561589
H     -0.426714681917    -3.775284491137     3.524546644789
H     -2.517826940106    -3.927667268982     2.161985605679
H     -3.354543134118    -1.933562735524     0.924285756337
H     -2.147441256694     0.253509025854     1.132543578126
C      2.895422834220    -0.762133543487     0.832344076042
H      2.733447699266    -1.432908370795     1.673244028065
H      2.985314183838    -1.192755583478    -0.160845651980
C      2.981011454386     0.582520460696     0.976900581603
H      3.134293266816     1.198231195232     0.102101151779
C      2.840260109193     1.319859456129     2.241791131301
O      2.582145495855     0.697952437518     3.309284524402
O      3.005651757778     2.715232945930     2.227728541868
C      2.675409881477     3.396101940233     3.445645710630
H      2.830870085618     4.487883361885     3.309509900293
H      1.605741981218     3.231226094174     3.709603086469
H      3.323964799587     3.051185894706     4.282448467393
Pd     0.144579990673    -0.141361506803    -0.155469143973
C     -0.099503126663     2.718452625601    -0.309304064614
O      0.052389579437     1.721992344368     0.595118334812
O     -0.193959435574     3.919394921698     0.003356583904
C     -0.158457629280     2.217974239281    -1.790104374047
H      0.244849358520     3.024687546470    -2.414938881928
C     -1.585735609980     1.969639092031    -2.228760016545
H     -1.602710278770     1.667347365304    -3.296975095529
H     -2.038319731066     1.160015396736    -1.620074092985
H     -2.188694897359     2.894782217067    -2.110648228197
N      0.576979782340     0.930816063923    -1.905599477408
C      1.872585972298     0.802699448926    -2.368408507566
O      2.574542874382    -0.216551991751    -2.169344168337
C      2.436891150181     1.885864336546    -3.208892714891
H      1.761258519560     2.053078124198    -4.065153009288
H      2.561182205346     2.789355080608    -2.588803142485
H      3.427737984929     1.563474173795    -3.581108175045
N      0.158209574823    -2.018204606746    -1.011926259912
C      0.476658495030    -3.123450445772    -0.270181705894
C      0.339236549350    -4.385260023015    -0.812844831743
C     -0.104818499887    -4.545546770610    -2.106901059621
C     -0.387586907507    -3.423672666584    -2.840281459239
C     -0.219581436842    -2.152140571766    -2.253612130132
H      0.845549463542    -3.009949878261     0.738334152072
H      0.587374314616    -5.247710569980    -0.216748179267
H     -0.212775258227    -5.536318840297    -2.540057451447
H     -0.708323137811    -3.474813724096    -3.860994036846
O     -0.468114143971    -1.135176501346    -3.048518618948
H     -0.113165900213    -0.222730338444    -2.642956863020

