# STO-3G

title

0 1
C      0.734423010109     3.055178099398    -1.154700983597
C      2.029633949407     3.314253491592    -1.647680282356
C      2.207586645986     3.781139719890    -2.966381108413
C      1.086392135381     3.992834720738    -3.794601317945
C     -0.210256387548     3.742634264998    -3.299662759542
C     -0.386783937215     3.274927569230    -1.981618621422
H      0.583139909903     2.678532545549    -0.148220726798
H      2.897783448480     3.151952698010    -1.009885630880
H      3.209076069181     3.981845356660    -3.342183362681
H      1.222642471971     4.358352676712    -4.810315316827
H     -1.076186646260     3.917866233920    -3.934770825614
H     -1.375436112248     3.072834247884    -1.580706672712
C      1.920884051869     1.773585662359     1.831634218507
H      1.917362602519     2.841293960081     2.034482064550
H      2.562686193380     1.428144729612     1.027113139436
C      1.150423394623     0.885811685731     2.499292086101
H      1.176017488903    -0.158906377976     2.219315705532
C      0.219829107128     1.242279946909     3.581065838275
O     -0.533151386651     0.350086668214     4.058017275457
O      0.147639019830     2.573263188446     4.034752252098
C     -0.798019429525     2.831894130850     5.081421490944
H     -0.754953427766     3.907692896028     5.356846611553
H     -1.833464707142     2.601484426787     4.744685829841
H     -0.558712341279     2.230981907228     5.988004475193
Pd    -0.263776520449    -0.274691162531    -0.202275992805
C     -0.823022231257    -2.693471750902     1.225685860176
O      0.016180278601    -2.216967925772     0.267053161802
O     -0.682918388896    -3.822905429538     1.730699759817
C     -2.004227140340    -1.737719083696     1.651586468177
H     -1.979287123625    -1.661639815021     2.749112080019
C     -3.339711269318    -2.310098758815     1.223073278314
H     -4.165267554979    -1.676629695746     1.600763487199
H     -3.385302922912    -2.347159270230     0.115024903825
H     -3.463376570795    -3.335554180614     1.630371162741
N     -1.807882502216    -0.458211938329     0.989416795314
C     -2.211258047000     0.786233204938     1.123351252862
O     -1.613183339938     1.678879932941     0.387863728927
C     -3.270097676637     1.167074272209     2.071453961813
H     -4.211646125114     0.704776721071     1.736513526674
H     -2.978885782839     0.800890378694     3.070278655080
H     -3.360632603997     2.268013145346     2.072121384940
N      1.376777183380    -0.147121760770    -1.476094041775
C      1.182460108041     0.224273682331    -2.779440329619
C      2.234051104266     0.169970183758    -3.674363240310
C      3.483279050726    -0.237477082415    -3.261083303453
C      3.654056933299    -0.584820054745    -1.943901876120
C      2.537274085196    -0.520957579042    -1.073720815101
H      0.202404278615     0.549436295569    -3.108506488148
H      2.070705980759     0.467974382485    -4.696740444420
H      4.315604044982    -0.268388264372    -3.959224515339
H      4.612697038367    -0.875994150260    -1.569091911481
O      2.725040865822    -0.784807393421     0.234173936606
H      3.465377424707    -1.377050675268     0.453346523818

