# STO-3G

title

0 1
C      1.535597479631     1.956883156087     3.251315658741
C      0.619801849215     2.110540024135     4.311850453846
C      0.579448412723     3.314102105104     5.044405759880
C      1.457991994130     4.366996383753     4.718840628090
C      2.378725146902     4.213342397064     3.662479518310
C      2.417426790845     3.009183489678     2.931528319114
H      1.580686497366     1.030196629961     2.686623186971
H     -0.059046154615     1.299492529159     4.566324812357
H     -0.128327592842     3.430282877188     5.862276570984
H      1.428248199233     5.295469234960     5.285012975712
H      3.062738495126     5.022251984307     3.414801868904
H      3.127053225522     2.874400409450     2.119206304170
C     -1.088622688175     0.947984050960     1.033112093302
H     -1.656705001454     0.255521352327     0.418561875412
H     -0.329292272111     0.508745912246     1.670239054117
C     -1.242890917629     2.289361950517     0.987389450124
H     -0.610744131420     2.913986706535     1.603799984405
C     -2.188315277671     3.000942978143     0.112940371508
O     -2.881095736336     2.356503049661    -0.723476529686
O     -2.246048592303     4.404434953695     0.179700139180
C     -3.164637008867     5.038453800316    -0.720975424383
H     -3.124304526576     6.139087585715    -0.572655996243
H     -2.895575845875     4.819419237900    -1.778885734867
H     -4.207382508578     4.699504643823    -0.525753635148
Pd     0.873694530455    -0.989325826339    -1.717129700969
C      0.012782514533    -3.709367107643    -1.696770241091
O      0.781158090210    -2.841542165987    -2.401053638112
O     -0.250646816858    -4.863248230610    -2.067262067063
C     -0.523330253234    -3.093151879839    -0.365433582948
H     -0.515764376113    -3.892776366993     0.385639693745
C     -1.938799451129    -2.581828006643    -0.511893580599
H     -2.297825871749    -2.191625723486     0.462247702172
H     -1.969701949707    -1.764497323560    -1.261385804215
H     -2.609501329197    -3.403983567826    -0.839462204964
N      0.338044537355    -1.940375471362    -0.019749931172
C      0.970027244025    -1.702366066681     1.118283047858
O      1.829073221673    -0.769862241718     1.311076126842
C      0.642162671292    -2.524546245633     2.303378936502
H      1.179262246650    -2.118754315379     3.181070251682
H     -0.445379630640    -2.469567399944     2.478574215857
H      0.979655744384    -3.559964977229     2.123960027897
N      0.934821248782     1.046280025126    -1.437053627568
C      0.038741776400     1.731964809822    -2.214063915926
C      0.158400397434     3.097204293145    -2.366754693889
C      1.164814179216     3.787490469239    -1.729274652041
C      2.027100457762     3.087665482490    -0.927993623718
C      1.861369008981     1.694506226635    -0.769953949522
H     -0.748892195515     1.195608566940    -2.730602053772
H     -0.547371121167     3.623798485787    -2.987758431942
H      1.260131616519     4.864013130288    -1.843152727718
H      2.804022936439     3.572646398773    -0.372959790116
O      2.651029254620     1.143804173639     0.103049794131
H      2.310341561258     0.200832493877     0.552657083710

