# STO-3G

title

0 1
C      1.799986708802    -3.016053832079     1.435008350854
C      3.097599954552    -3.242780538049     0.931343332052
C      3.795789901848    -4.411462049664     1.294551637053
C      3.197710675060    -5.355760374526     2.153727656641
C      1.898721714462    -5.131673028689     2.652050491895
C      1.200449609228    -3.961220396987     2.292427203010
H      1.261856434386    -2.120797719181     1.140212797738
H      3.540093997973    -2.519462311887     0.252474725399
H      4.798214383650    -4.585297468465     0.909733245080
H      3.738284388566    -6.257536877338     2.433711615350
H      1.435544034801    -5.859584001490     3.314970377021
H      0.196833194333    -3.791314550333     2.680303685307
C     -1.056272043155    -0.697546335987     1.768938468131
H     -1.924103764203    -0.190528266777     1.356606448498
H     -1.040746223474    -1.778870674709     1.653469906575
C     -0.042029989298    -0.044610895498     2.382822744712
H      0.806505929531    -0.597415283801     2.759651859940
C      0.022893793476     1.413260726797     2.579512303644
O     -0.858242331609     2.163245202062     2.076619304635
O      1.140612552525     1.949444844500     3.242652267493
C      1.149116431551     3.374069317738     3.410939224934
H      2.073112246635     3.675050905322     3.950558605274
H      1.139005605141     3.890778706239     2.425048662377
H      0.272341240267     3.706269249876     4.012061273963
Pd     0.200936150640    -0.902083955742    -1.141678810236
C      2.800857911946     0.182343957553    -1.575477422582
O      2.204640684673    -1.031875375093    -1.391712303862
O      4.002712043708     0.292842366907    -1.869814402374
C      1.891139625746     1.469276144784    -1.371750551643
H      1.986430207222     2.082382157260    -2.279112731314
C      2.350401629850     2.273343304584    -0.175377121756
H      1.711563350335     3.169353749258    -0.050656381983
H      2.286243789718     1.647051637439     0.737341190960
H      3.402304836119     2.598469912263    -0.317381425342
N      0.530694617928     1.020985916455    -1.147605759695
C     -0.710201586354     1.436343292095    -1.143631691826
O     -1.641334295483     0.501151951225    -1.059676875709
C     -1.074142417532     2.853935636387    -1.246810485820
H     -0.694787309892     3.365516715447    -0.346497140585
H     -0.619351702572     3.261965779002    -2.163751906741
H     -2.175528882637     2.933487737944    -1.285207391062
N     -0.435747373876    -2.860158972302    -1.127979781990
C      0.410710984841    -3.923411812716    -1.293732624154
C     -0.083579078380    -5.209360346226    -1.202873277772
C     -1.420596647612    -5.430645734819    -0.950943499276
C     -2.244275853520    -4.343709097048    -0.801304524909
C     -1.701084932228    -3.048331913380    -0.905475152128
H      1.463519303509    -3.754415488998    -1.488907451671
H      0.591824153879    -6.041503653443    -1.316961037137
H     -1.811845243345    -6.441530634915    -0.873637686047
H     -3.293620368866    -4.445770191616    -0.608843055698
O     -2.586347337949    -2.070765574367    -0.729831604409
H     -2.272383935979    -1.124242526057    -0.830680617125

