# STO-3G

title

0 1
C     -0.777125935463     1.814897693162    -2.494590968000
C     -0.061299956742     3.029441934421    -2.519208815990
C     -0.289614589029     3.956528987461    -3.555321859062
C     -1.229940474255     3.672908120784    -4.566371976249
C     -1.941291539446     2.456736915246    -4.543818452247
C     -1.713621041272     1.528932516179    -3.507913444723
H     -0.609656944869     1.104824224497    -1.690193004675
H      0.661484140235     3.233020819571    -1.735162804472
H      0.264619007049     4.892431254966    -3.576181810064
H     -1.404729848511     4.389611021054    -5.366154575288
H     -2.664380640941     2.232990209548    -5.325335455381
H     -2.258263203145     0.586325689798    -3.497240813428
C     -2.663027785903    -0.455688697743    -0.227844505861
H     -2.664806188248     0.073671524793    -1.176111217947
H     -2.668612817933    -1.541169645567    -0.285720565615
C     -2.602703253970     0.175514842767     0.966984235764
H     -2.563718043105    -0.393369136880     1.886276826649
C     -2.536234730219     1.636795735563     1.124385554422
O     -2.315161555363     2.115782322115     2.270051264308
O     -2.633978446030     2.462780686059    -0.006912225478
C     -2.273779539469     3.837733607684     0.176975177508
H     -2.375849912841     4.371603116389    -0.793262174587
H     -2.939974031672     4.328464442550     0.921356576734
H     -1.212112168897     3.926173052798     0.501636406040
Pd     0.207012022474    -1.188928243792     1.629491222132
C      1.145391887014     1.477970055911     0.987890890054
O      0.981934707523     0.255660018775     0.396732512887
O      1.423711204114     2.502914749576     0.350639344413
C      0.949213395360     1.495747872692     2.554062586349
H      0.312489129399     2.361823750087     2.784869228303
C      2.274550031502     1.655334310078     3.266369993515
H      2.107793510528     1.712641647276     4.360894016500
H      2.921226170559     0.780776931631     3.046552618450
H      2.781338320199     2.583736844448     2.928936349418
N      0.365770299960     0.234261296910     2.957257219124
C     -0.430391970162    -0.245070332060     3.885098413957
O     -0.859161255192    -1.471326143326     3.685636551079
C     -0.840120771961     0.537233043196     5.058160692397
H      0.066360548473     0.812006800920     5.621168229493
H     -1.369624903245     1.435262507776     4.694862182993
H     -1.512783590346    -0.081946326228     5.678104388581
N     -0.090492285540    -2.656259290577     0.213347662843
C     -0.525813834858    -3.883604271436     0.634325485290
C     -0.824870171480    -4.861548323477    -0.292103354083
C     -0.680330024575    -4.616476757324    -1.640749607720
C     -0.239406086682    -3.379750661025    -2.033485262115
C      0.057588063021    -2.405315420306    -1.058578092647
H     -0.643320494997    -4.080677578697     1.694044026775
H     -1.170091468960    -5.824934584955     0.046617953395
H     -0.911472797920    -5.384273515332    -2.374475094750
H     -0.104107961700    -3.123470052134    -3.065856917371
O      0.458093438536    -1.253122960892    -1.549959973545
H      0.712304305511    -0.511352567354    -0.885235825191

