# STO-3G

title

0 1
C      0.248588894972     2.703565626641    -0.807126775733
C      1.415755127740     3.076450222220    -1.531898770568
C      1.402214559831     3.112008793360    -2.929738131159
C      0.226435623111     2.752867074206    -3.644276293537
C     -0.927999290577     2.373676905835    -2.950376887304
C     -0.930828300019     2.360815827286    -1.525882889794
H      0.187757379400     2.797411731976     0.273697675346
H      2.310518368209     3.363632747745    -0.984407200694
H      2.288035352697     3.431545347558    -3.475364807558
H      0.220609758667     2.800874714183    -4.731170513675
H     -1.840894873602     2.133059830794    -3.489783491853
H     -1.859819811671     2.241885771101    -0.978598912322
C      2.207548678759     2.336860099351     2.120972742742
H      2.468589482324     3.282371105769     2.588372861486
H      2.720615255007     2.080553770156     1.198996229038
C      1.259292783439     1.505947168312     2.609689120722
H      1.016537222275     0.594699114787     2.077446772696
C      0.461416998439     1.767276225264     3.817096079593
O     -0.369065916803     0.896543904529     4.198729015297
O      0.716235890298     2.916969041090     4.590473088079
C     -0.138334279649     3.108589281756     5.725814819666
H      0.148842813556     4.046572762415     6.247377935234
H     -1.201263669720     3.199418523810     5.406296069836
H     -0.036423503556     2.264296545974     6.444646298972
Pd    -0.069861928311     0.272871214641    -0.496286838251
C     -1.028213506357    -2.208039508328     0.570582722727
O      0.081694748139    -1.669097488749     0.010481502903
O     -1.107719915304    -3.409791703843     0.890704952202
C     -2.206789128211    -1.204119489555     0.739555792144
H     -2.707564843961    -1.478566695613     1.677354287714
C     -3.201260984355    -1.337834737598    -0.395868138369
H     -4.046039903340    -0.636734329127    -0.240263318734
H     -2.703291954475    -1.088381286704    -1.355179261367
H     -3.593531155853    -2.375561841379    -0.442075998420
N     -1.682499056584     0.174623448263     0.717466678941
C     -2.038132165898     1.192575329138     1.524762034233
O     -1.493650809523     2.341224965384     1.498891394504
C     -3.144584992215     0.982644071452     2.491927454908
H     -4.042162403081     0.655148320660     1.944137807898
H     -2.810412348578     0.241506259595     3.237968145152
H     -3.347421018869     1.939300263516     3.006965677140
N      1.624831935476    -0.074325123970    -1.655063793743
C      1.503887155260    -0.327079061894    -2.993555623794
C      2.587689123220    -0.807369147314    -3.704456222460
C      3.790950232889    -1.036920480871    -3.072220085383
C      3.883646237430    -0.772571395697    -1.728222721442
C      2.736614079267    -0.288073914793    -1.051610331556
H      0.557544306602    -0.156726398685    -3.492275228991
H      2.483236767581    -1.007673998556    -4.757873393257
H      4.646168990708    -1.414038607498    -3.626907167267
H      4.800182628804    -0.920715331319    -1.197265914779
O      2.828668591026     0.005695663408     0.257155042637
H      3.548358221001    -0.417230790986     0.757702835934

