# STO-3G

title

0 1
C     -0.127960455981     2.222042247805    -2.232957441386
C     -1.407307592056     2.830993741784    -2.295076956018
C     -2.358621862285     2.386166870394    -3.225031692052
C     -2.048867599759     1.321147101253    -4.098394256212
C     -0.779352829255     0.716249569565    -4.050790475539
C      0.186183275557     1.170511352973    -3.130794539367
H      0.608420355175     2.713803942436    -1.581714123087
H     -1.628317152854     3.642901513355    -1.610667870353
H     -3.334660953684     2.862706274349    -3.272037236166
H     -2.790392649707     0.971259929589    -4.813213461565
H     -0.538390629192    -0.101008596873    -4.725863203203
H      1.162337924196     0.696361067774    -3.125777471633
C      2.505420304317     1.775720451688     2.132713930620
H      3.071011064370     0.869460645034     2.343340714998
H      2.969316116611     2.488131132694     1.455877832882
C      1.274441425960     2.015819715758     2.641834997001
H      0.734724569731     2.904131574687     2.347914247112
C      0.560921012603     1.107224583130     3.553443797607
O     -0.631824431178     1.375269261430     3.867165243236
O      1.218292502706    -0.024055789420     4.070750570897
C      0.415162490787    -0.911627076710     4.860684835806
H      1.038808545147    -1.765728282334     5.201158726825
H      0.013475791992    -0.391090385618     5.758873943528
H     -0.427659827889    -1.322974250097     4.260447268945
Pd     0.389394813317     0.967361478722    -0.150414077941
C     -1.299631643094    -0.889195826565     1.375593999004
O      0.008451702496    -0.680898113642     1.058818143018
O     -1.707835989445    -1.910816574335     1.946379497239
C     -2.214401516700     0.297866278520     0.940536844711
H     -2.901731473554     0.480223177113     1.778399524602
C     -3.026619516964    -0.055547786359    -0.287416340432
H     -3.707706328286     0.783384034838    -0.537441304513
H     -2.347150045225    -0.221269454669    -1.149884363749
H     -3.627376788766    -0.970848108383    -0.103999011537
N     -1.384159537220     1.452909803318     0.602629563373
C     -1.516732073740     2.740256311745     0.938272691251
O     -0.644513344901     3.618032184154     0.618775018451
C     -2.719426828904     3.165416294841     1.688318135762
H     -3.612634424078     2.879139831323     1.109630381033
H     -2.694790935444     2.675965946552     2.677532454618
H     -2.685339700411     4.262181108830     1.819054174609
N      2.357657019401     0.363616091294    -0.643927447783
C      3.183370842399     1.221141290572    -1.326402950118
C      4.491982541550     0.874334196119    -1.585724844099
C      4.993242053625    -0.334578673456    -1.162679976423
C      4.164832217282    -1.167824317790    -0.463358637716
C      2.833492966085    -0.777507337667    -0.201849332181
H      2.813742385636     2.177592906169    -1.670139919526
H      5.125025990194     1.556871386017    -2.129738064623
H      6.023349030074    -0.614710965324    -1.367274390676
H      4.498753072914    -2.113929897783    -0.084604962598
O      2.168679451598    -1.637825316527     0.524066589869
H      1.199134069584    -1.372045525522     0.844817184644

