# STO-3G

title

0 1
C     -1.273836475840    -2.589409457950     0.494240002906
C     -1.943098104946    -2.484469073744     1.730818207650
C     -2.188304245582    -3.637414285202     2.502313323696
C     -1.763654398222    -4.898614648842     2.039432337896
C     -1.095927584763    -5.004734559515     0.803256290817
C     -0.851411051752    -3.852268528089     0.030839120809
H     -1.072056558140    -1.705968833370    -0.105101501737
H     -2.275942316248    -1.515425152560     2.094853211127
H     -2.707992739250    -3.553605160693     3.454344732159
H     -1.953331519452    -5.789210742864     2.634676207817
H     -0.766437080754    -5.976181073904     0.442107372462
H     -0.332026893793    -3.937981432489    -0.919888980493
C     -1.197059016851     0.808578849791     0.887912745882
H     -2.017881965428     0.220264298962     0.481832460249
H     -0.391017028154     0.243069750427     1.346713242380
C     -1.170300616274     2.163528580376     0.841665767474
H     -0.308998119739     2.696842709590     1.217441935466
C     -2.250440366302     2.989494335432     0.277688071767
O     -2.072490650920     4.231974750124     0.168987988771
O     -3.422675642531     2.374434588748    -0.200564221311
C     -4.382247587290     3.244075142366    -0.816260811159
H     -5.255867966174     2.646164926953    -1.153855920469
H     -4.741884441678     4.011401284947    -0.093909749009
H     -3.943182594047     3.748835008713    -1.706080374979
Pd     0.889950959113     0.633829328289    -1.025933392541
C      1.928329348703    -2.073829742859    -1.162052888092
O      0.956615642240    -1.286622235293    -1.716055549513
O      2.200327646913    -3.201692709410    -1.592368804630
C      2.663948628565    -1.438374482529     0.076918217380
H      3.741966320768    -1.507792253889    -0.132772372449
C      2.356536562773    -2.214681734794     1.340556131140
H      2.963685202862    -1.829707463698     2.182696077658
H      1.281986428970    -2.109518665393     1.594068575168
H      2.590094636453    -3.290866584311     1.197192205353
N      2.213757004457    -0.066215263136     0.248502565604
C      2.663814612609     1.046969088716     0.795468272219
O      2.035809397135     2.146196377977     0.489853882897
C      3.811334775053     1.056887198092     1.715695295588
H      4.015123460139     2.104340129306     2.002169914944
H      3.540437594012     0.466811413856     2.605621602710
H      4.682849979344     0.623738957959     1.196080700566
N     -0.448238540032     1.347551872459    -2.427149040474
C     -0.608232112561     2.701877533051    -2.546743797713
C     -1.547451787882     3.209028575285    -3.420902976744
C     -2.325309459250     2.362896386101    -4.180993759387
C     -2.134315910179     1.011960138680    -4.052714931629
C     -1.158324152470     0.530339667288    -3.155744000948
H     -0.007189617111     3.372416810668    -1.942559706813
H     -1.673594884774     4.276962048334    -3.497368816588
H     -3.069061381747     2.757326298638    -4.868047109456
H     -2.699093370193     0.299205008377    -4.619799113919
O     -1.046764851149    -0.781927896807    -3.125687133257
H     -0.255061708915    -1.169733321574    -2.594177619172

