# STO-3G

title

0 1
C     -1.886375020157    -2.211143823118     0.097260926687
C     -3.104557229458    -1.976017868049     0.767333812022
C     -3.656519756837    -2.959841727761     1.611022249817
C     -2.991747217292    -4.189428505053     1.785942429445
C     -1.778624718489    -4.431182673383     1.111686859132
C     -1.226731478907    -3.446465936527     0.268391462223
H     -1.455045076006    -1.448226263086    -0.546768748088
H     -3.629331470721    -1.031332075038     0.638994909954
H     -4.597407078443    -2.769578598974     2.122694485985
H     -3.416693791436    -4.951731310478     2.435356050267
H     -1.263648794086    -5.380789380065     1.238461925189
H     -0.292648991900    -3.643903416091    -0.248891368790
C     -2.045819222167     1.268639564531    -0.933535089256
H     -2.783287226386     0.521852150908    -0.655722247678
H     -1.920665814963     1.426153957889    -2.001815614969
C     -1.287120193403     1.940081076707    -0.035582030624
H     -0.539852339719     2.648872016125    -0.364837173683
C     -1.355603775444     1.747674242710     1.422213764064
O     -0.505339023854     2.321072788196     2.155588478179
O     -2.310663083286     0.869135196668     1.964717239544
C     -2.233213451462     0.644950672443     3.378875191090
H     -3.027040179275    -0.072602426377     3.679654890802
H     -1.249291428246     0.204438163383     3.656695197813
H     -2.387990894505     1.594483881564     3.939416516500
Pd     1.187092607520     0.809874443422    -1.595945454807
C      1.768783470902    -1.757423088913    -0.434713847862
O      1.060407901654    -1.224746186678    -1.479187507678
O      2.057330378640    -2.958063735744    -0.358286926747
C      2.149481911051    -0.727301682123     0.700766601588
H      3.192140956465    -0.927842095465     0.984031521953
C      1.256512978092    -0.922550115247     1.908128884128
H      1.543071273852    -0.217577541825     2.713124333171
H      0.200900253886    -0.736866930391     1.623099028329
H      1.349352968995    -1.961419627701     2.288636582272
N      1.959159879561     0.613489759460     0.186004647043
C      2.248969443448     1.869923192730     0.430846286639
O      1.896802925663     2.722409328073    -0.509847338919
C      2.910795788520     2.313105582875     1.663587353509
H      3.085181541811     3.400842083107     1.589229898023
H      2.227917393839     2.100423476014     2.503132845057
H      3.863246525811     1.767218567775     1.768377866589
N      0.311030724048     1.040694770978    -3.449092126825
C      0.337735092638     2.276855819481    -4.035938344391
C     -0.334620607783     2.488499608764    -5.222070960659
C     -1.024907050881     1.461367097911    -5.829143037467
C     -1.026120292697     0.231461626832    -5.224281142477
C     -0.324457492810     0.050722472006    -4.014733280377
H      0.874574587777     3.089501160707    -3.559348813520
H     -0.314461433404     3.466194800871    -5.675695531425
H     -1.554237613291     1.622426020075    -6.764655010985
H     -1.538611725188    -0.610769968678    -5.645757510816
O     -0.396317561794    -1.168066177560    -3.522886614037
H      0.164327889812    -1.376736611226    -2.687322626853

