# STO-3G

title

0 1
C      0.913115544223     3.862619450237     0.555697769531
C      2.319110001351     4.032878063885     0.620107576844
C      2.970007473286     4.953959317097    -0.220408349834
C      2.238935241932     5.737561972568    -1.132539621127
C      0.837544665842     5.600065443718    -1.189931482809
C      0.189193492742     4.680008521129    -0.353949592022
H     -1.785070445135    -1.289064039244    -0.244481102443
H      2.923479098306     3.473722812287     1.327455477801
H      4.049783094422     5.064780013166    -0.153660973373
H      2.748864339031     6.450335369244    -1.775833124834
H      0.257316088652     6.210736316499    -1.877525687327
H     -0.894461593272     4.582254196860    -0.407470049451
C      0.121094059075     2.922142210450     1.392951278909
H     -2.342806138691     2.180877935564     1.594802818873
H     -0.901033901385     3.284530818471     1.527135923963
C      0.482052727178     1.852898388480     2.236424644622
H     -0.232880102926     1.486871594625     2.956492112270
C      1.814131422583     1.246950303297     2.346698621441
O      2.386210328823     0.932709965892     1.268169173265
O      2.187151895966     0.665200026852     3.566601241405
C      3.268271164839    -0.275243190446     3.512425200988
H      3.465483334703    -0.664814507235     4.534363194017
H      3.001728520554    -1.141252606773     2.863540113986
H      4.197726774578     0.205918533552     3.133388405044
Pd     0.031901691382     1.042200793436     0.176745258726
C     -0.653761354811    -1.485447746307     2.437717114420
O      0.366166016846    -1.591676849563     1.552177679661
O     -0.469522228375    -1.398682308364     3.662843663549
C     -2.106482362386    -1.446637420029     1.838806901926
H     -2.716970283473    -0.912609470636     2.569088239774
C     -2.671130307322    -2.838068381774     1.652299642842
H     -3.716571617376    -2.766079329144     1.286797821513
H     -2.069250218250    -3.390757574332     0.900578223233
H     -2.660746515485    -3.389568806909     2.615296507183
N     -2.182949923802    -0.767018060219     0.545811155351
C     -2.082045349777     0.591976511055     0.434170539542
O     -2.551539607369     1.228969988026     1.589943607594
C     -2.564730248799     1.167601587171    -0.841804916716
H     -3.457602832869     1.784837221433    -0.631625830477
H     -1.779179948344     1.781793298995    -1.307602435695
H     -2.863061514275     0.352982016917    -1.530722872324
N      0.335488625330     0.153692683083    -1.726577086976
C      0.782105228830     0.915377471445    -2.772089554872
C      1.077445780227     0.323585076601    -3.981149865112
C      0.943163216221    -1.037240273678    -4.148882346328
C      0.513094709622    -1.786125184875    -3.086183116491
C      0.223200447402    -1.156824173062    -1.852750275815
H      0.888882185763     1.987728241302    -2.650841589230
H      1.424448237809     0.933408196380    -4.799475625898
H      1.178113951194    -1.506551251292    -5.100620006922
H      0.396204637969    -2.849594188872    -3.147387792516
O     -0.165744963509    -1.939577982995    -0.893215732519
H      0.147061025936    -1.715502945621     0.535594243360

