# STO-3G

title

0 1
C      2.347743622519    -0.656199874192     0.957719200615
C      2.717195187381    -1.740433818771     0.135777887064
C      3.898860207345    -1.667417542815    -0.628752933644
C      4.711889406381    -0.517285394217    -0.568878256785
C      4.348543091977     0.560349241214     0.263739559522
C      3.166873460166     0.488751638069     1.027937280832
H      1.442734999619    -0.716714649293     1.554191117499
H      2.088550560253    -2.626367105098     0.114731594782
H      4.188356390126    -2.504232092075    -1.260450504262
H      5.624549550787    -0.463789602273    -1.158429145058
H      4.980944075147     1.443701712532     0.320319607598
H      2.892669150381     1.313095050547     1.685508966053
C     -0.468287356829     0.171373667827    -1.108007413938
H     -0.476596306450     0.282527104410    -2.194447098499
H      0.260190039402    -0.583664271414    -0.810236621279
C     -0.205223200762     1.459547586764    -0.300949636550
H      0.827362926280     1.518324283633     0.022750770417
C     -0.755406728224     2.751753503490    -0.729561487558
O      0.061219705448     3.678033763265    -0.975976026101
O     -2.021445987957     3.070888020586    -0.205043911272
C     -2.582641952848     4.302596179510    -0.678708874702
H     -3.589639749298     4.446029594162    -0.232282592064
H     -1.947041733854     5.170426664672    -0.389447226906
H     -2.697794246931     4.278846250750    -1.787009904466
Pd    -1.387433785261     0.762028144586     1.217581424354
C     -1.093708000492    -2.181649684294     0.932484866672
O     -1.415265192090    -1.488839971887     2.030830409349
O     -0.193139531210    -3.043707879614     0.837010140111
C     -2.013802813655    -1.782596122886    -0.276699203920
H     -3.031074784502    -1.952192604740     0.095029715393
C     -1.793263569939    -2.622461186820    -1.521316300292
H     -2.483551915671    -2.300616161496    -2.327251845865
H     -0.750060821297    -2.505083076573    -1.877648604894
H     -1.974450821213    -3.693412534656    -1.294051552367
N     -1.854247067849    -0.317838724419    -0.628387244188
C     -2.912656948313     0.344367933480    -1.310419032301
O     -2.700239526977     1.156079725570    -2.225292685194
C     -4.298876641178     0.109254406790    -0.848726935955
H     -4.947401187974     0.873042268397    -1.315479205100
H     -4.618922969318    -0.889235308879    -1.186556613406
H     -4.332144416037     0.210584644142     0.249237577825
N     -0.383034388516     1.629792449780     2.763323891005
C     -0.189995221952     2.983071868668     2.835441949785
C      0.580635880745     3.516297539445     3.846065990349
C      1.157396349042     2.700913604715     4.794017048487
C      0.943735292797     1.350929733366     4.708643779003
C      0.152504747473     0.828993224232     3.662497349624
H     -0.638869841037     3.635541508103     2.096321776598
H      0.733847288210     4.582574199167     3.888783845973
H      1.768127996586     3.118390620382     5.590296413411
H      1.369295388385     0.663222345970     5.412829743534
O      0.034793151375    -0.468395538941     3.674199197272
H     -0.592959284890    -1.029605676065     2.939824529314

