# STO-3G

title

0 1
C      4.312334074266    -0.588616237330    -1.526647767737
C      4.642481861614    -0.461055565336    -2.891234445443
C      5.543283109458    -1.370073600464    -3.481667734743
C      6.113053359448    -2.402703240285    -2.709320344608
C      5.783944516944    -2.526161491258    -1.344219858676
C      4.882726519707    -1.618620971586    -0.751731237910
H      2.541026786266     2.007542140394    -1.682019554348
H      4.200993511931     0.344779028926    -3.472928482186
H      5.802712136446    -1.270848126069    -4.533623811351
H      6.810365544987    -3.101985547556    -3.165843782040
H      6.226575496394    -3.320010953136    -0.746704610062
H      4.625729644415    -1.709795636433     0.301390769779
C      1.218285135168    -2.257664268828    -1.333928001385
H      0.450077147691    -2.806618383171    -0.799215165407
H      2.220283064451    -2.316496276062    -0.925536137845
C      0.992690734460    -1.615015461283    -2.532840150101
H      1.821994734059    -1.154109540480    -3.052376817535
C     -0.276451085827    -1.660379523191    -3.277317197225
O     -1.336594058323    -1.999627769953    -2.683428510054
O     -0.288092821931    -1.249834832925    -4.620783341971
C     -1.562587262201    -1.281178527775    -5.277156829397
H     -1.443253036888    -0.932820705530    -6.325515919264
H     -1.972114624002    -2.316405974127    -5.297208092421
H     -2.286217562348    -0.605450335637    -4.768700486005
Pd     0.902203924356    -0.061588275094    -0.625050426150
C      1.146422227540    -0.470558488599     2.200137645621
O      1.444849638759    -1.109198256624     1.046301266269
O      1.223948144632    -0.986973868897     3.328768229558
C      0.692273884258     1.021276174902     1.996993594419
H      1.062693492338     1.593639745363     2.856713069269
C     -0.811386834723     1.155638526965     1.939601841043
H     -1.081594234421     2.220639072547     1.783585455609
H     -1.212026548796     0.559845979387     1.095084032546
H     -1.263313116872     0.799139429147     2.888869105188
N      1.219880642042     1.450951501020     0.690965315977
C      2.163038436070     2.333776578376     0.457233366684
O      2.796865263994     2.482365529292    -0.671118425611
C      2.577972206507     3.265793804752     1.525291014463
H      3.305217190461     3.986328407334     1.106382716416
H      1.683382575155     3.810393224808     1.870959711829
H      3.057386233296     2.694488466362     2.337961462949
N      0.105480345624     1.116765897963    -2.115802601294
C     -1.255901652570     1.206405329050    -2.217141034187
C     -1.825371144597     1.870241725939    -3.284403048823
C     -1.032616960262     2.453026013519    -4.250223890165
C      0.327748848459     2.381321843403    -4.110966074213
C      0.883689443484     1.720576531304    -2.991270263073
H     -1.884937679147     0.726388989119    -1.476858442105
H     -2.898182803412     1.923977210727    -3.363250952219
H     -1.476653468071     2.972230763989    -5.094944178508
H      1.002386192227     2.842474783622    -4.802368686667
O      2.173325857931     1.750428998522    -2.870118596829
H      3.625402105887     0.119383126308    -1.071962935238

