# STO-3G

title

0 1
C      0.179295726895     1.122293546269    -2.367872250461
C     -0.321790520050     0.066972477518    -3.180653400044
C     -1.621903807725     0.162898571790    -3.740485575707
C     -2.404809637963     1.301632206460    -3.502582199538
C     -1.906411757011     2.357633087586    -2.695952940497
C     -0.627276245847     2.271087523728    -2.136361532245
H      1.219678187805     1.130680168836    -2.055707559816
H      0.333423981933    -0.760377919738    -3.433724255694
H     -1.989835737587    -0.633462724345    -4.382010310667
H     -3.392018360827     1.389180848623    -3.950532829722
H     -2.514101175594     3.242900976976    -2.524504436777
H     -0.234055178032     3.088674549245    -1.537680841716
C      2.711589511531     1.035602038860     0.182830338387
H      3.089720626014     1.144122951951    -0.831999489964
H      2.746713249345     0.028235068217     0.582240900606
C      2.215703351058     2.058431182163     0.920838246413
H      1.854340925844     1.827387012122     1.906655809792
C      2.102199284525     3.459837055396     0.438642692062
O      2.414822538663     3.709803465078    -0.752846992383
O      1.649347397985     4.526376391391     1.243923461739
C      1.246192570918     4.250726186011     2.591785287874
H      0.931242890537     5.200979536262     3.074489901256
H      0.372287864314     3.562081380010     2.614032199150
H      2.090405227618     3.835586125635     3.186116553845
Pd     0.043865694321    -0.609411147436    -0.673403627432
C      1.839195742763    -2.760823180036    -1.193182123683
O      1.623638129244    -1.486620373266    -1.588472039695
O      2.631593718791    -3.545618741367    -1.744711468629
C      0.980943867800    -3.179430407707     0.053530709694
H      1.590247598272    -3.879316747358     0.639855276159
C     -0.297934531382    -3.877526487273    -0.348937882658
H     -0.865350583807    -4.164725825186     0.560421935002
H     -0.925061968249    -3.196024331711    -0.958526340617
H     -0.066437966180    -4.790279601181    -0.937279364520
N      0.598919167382    -1.943886884546     0.764541039168
C      0.924414584339    -1.585329764148     1.988857188676
O      0.753996995306    -0.404489115077     2.490946158395
C      1.545425704703    -2.571227100132     2.898209764417
H      0.877639266946    -3.446541934786     2.972694461585
H      2.538275864933    -2.840845905856     2.501080519023
H      1.667618475883    -2.117008689928     3.899694152140
N     -1.683894551681     0.142979810535     0.139302643582
C     -2.822910013779    -0.178820071580    -0.547314436350
C     -4.005571115627     0.475620207746    -0.272940968341
C     -4.052660898592     1.461599678439     0.686772294625
C     -2.908043237334     1.750754620939     1.380858964597
C     -1.716772048739     1.047089178486     1.092921759630
H     -2.791369804083    -0.942266720525    -1.315241792603
H     -4.892167366227     0.224399898543    -0.830785975018
H     -4.978878396682     1.989777898114     0.896649924695
H     -2.883430439726     2.493610672624     2.151819049322
O     -0.695199245608     1.360785856710     1.829756293942
H      0.070250932509     0.502928890084     2.039264560129

