# STO-3G

title

0 1
C     -3.334011915179     0.978398678483    -0.146089978879
C     -2.817568610436     2.047154074368     0.645890688794
C     -3.312222654279     2.254803517663     1.961865948371
C     -4.298287042660     1.408683783714     2.476839054043
C     -4.821499057778     0.353786371532     1.686433635344
C     -4.351684902043     0.141048270644     0.387335682548
H     -3.043902897372     0.869004310681    -1.186392172629
H     -2.166215441536     2.788737093002     0.194154798988
H     -2.924575094799     3.074756150009     2.560163922513
H     -4.665569033796     1.553722392421     3.489034131846
H     -5.586175448959    -0.298230742305     2.099846266866
H     -4.749934652049    -0.665684242590    -0.221618794676
C      2.557035141226    -0.482584080380    -1.243376632469
H      3.538497175019    -0.206161930637    -0.866744636313
H      1.735419436841    -0.457888957717    -0.537102808328
C      2.332533971266    -0.850129226867    -2.526826943440
H      1.330816472963    -1.117871701038    -2.838978753493
C      3.358098715089    -0.911935572178    -3.580297548379
O      4.557440082190    -0.626693446265    -3.312523303453
O      2.970957049370    -1.293340397474    -4.877157787275
C      4.017797189879    -1.340644330639    -5.856744338169
H      3.592498681836    -1.653377620424    -6.834723271311
H      4.485346221691    -0.338066929629    -5.984897091959
H      4.799040297002    -2.078930607964    -5.565355547978
Pd    -1.213211615968     0.113767840292     0.577059392753
C     -0.993574712605    -1.345040632364     3.022455792902
O     -1.899927188212    -0.637544527256     2.315293307497
O     -1.166901385972    -1.738676549088     4.190979932889
C      0.330008614303    -1.637096840023     2.230823400788
H      0.678404183921    -2.630997691167     2.540075113192
C      1.412312506071    -0.630566638758     2.548531826881
H      2.334092178440    -0.885884634256     1.986340464153
H      1.080280694242     0.385544920678     2.254993129324
H      1.636415059208    -0.643351944163     3.635997625791
N      0.017622088252    -1.506447249835     0.795462654266
C      0.022466946909    -2.457382708375    -0.115042776302
O     -0.480207640010    -2.358834260907    -1.305750765257
C      0.688946882850    -3.743431772671     0.173530154894
H      0.678989344407    -4.367155144396    -0.739818864485
H      1.733337790514    -3.535084521414     0.461546642850
H      0.133592279574    -4.264358240423     0.972514892509
N     -0.380083011221     1.037833747347    -1.069944096598
C      0.351361044586     2.175331126634    -0.860545409984
C      0.737102603017     2.954480121196    -1.929935332170
C      0.408108738637     2.590104141138    -3.217442327065
C     -0.297170908243     1.431423245330    -3.406748911250
C     -0.661463923175     0.643798132726    -2.292920134295
H      0.602663927368     2.476165639725     0.149809750620
H      1.304193350799     3.854370567810    -1.755786371652
H      0.713446211341     3.199649417164    -4.063850861010
H     -0.554977050197     1.074243202775    -4.383948165094
O     -1.249717207574    -0.480971166377    -2.559424818655
H     -0.955504229048    -1.409189805082    -1.837806958210

