# STO-3G

title

0 1
C     -3.291605905768     0.934329528788    -0.219055175281
C     -2.831225277407     2.016735904515     0.589041884207
C     -3.386090620132     2.220095212819     1.881653520410
C     -4.375536317458     1.356111337643     2.359026874921
C     -4.842866674141     0.287897531279     1.551992067961
C     -4.313893263669     0.079264146408     0.274805115595
H     -2.951799441288     0.824323131851    -1.244428662904
H     -2.178060951665     2.770526007728     0.160640842891
H     -3.041128373115     3.050747408969     2.491255206242
H     -4.788099342268     1.497508727159     3.354099759711
H     -5.611158578148    -0.378043381280     1.935442191287
H     -4.670042827489    -0.738191426508    -0.345793852582
C      2.563306398252    -0.457444936046    -1.354348265978
H      3.402682997984     0.211254578521    -1.177925783747
H      1.869036391166    -0.592917039471    -0.532926531551
C      2.346412512727    -1.075633135958    -2.539757643402
H      1.475864828490    -1.706089986295    -2.658340344585
C      3.191083242670    -0.924328551748    -3.735605204288
O      4.213874780885    -0.186491713306    -3.698907020494
O      2.837179802147    -1.622437098925    -4.903753342180
C      3.696704817472    -1.429389565099    -6.035770898912
H      3.316424300849    -2.026808258438    -6.892232680398
H      3.715537975118    -0.358279273048    -6.339791011493
H      4.732876998408    -1.768024999599    -5.808022027153
Pd    -1.179799880658     0.129259751276     0.611616213644
C     -1.028911193835    -1.337907181146     3.057789993695
O     -1.920718480603    -0.642992091247     2.319229889428
O     -1.238429010727    -1.736794689325     4.218568703603
C      0.326054413132    -1.607802892218     2.312152796850
H      0.679488485825    -2.597663106671     2.629020887059
C      1.381764758247    -0.586528300961     2.668866640646
H      2.322283092948    -0.820175499411     2.128492740562
H      1.040557268946     0.426480711692     2.375215682402
H      1.576314380242    -0.605965176750     3.761872793608
N      0.061714202483    -1.474775728852     0.868339637410
C      0.079358681339    -2.427238310104    -0.043165165507
O     -0.386339878528    -2.317286832909    -1.245806098655
C      0.718287885076    -3.722748625419     0.266911611833
H      0.721549682233    -4.349298314737    -0.644489092666
H      1.757666965908    -3.530110184365     0.582457653729
H      0.133655455331    -4.231671678162     1.052774029332
N     -0.285341629390     1.080838703606    -0.984272937199
C      0.425482085619     2.218418063713    -0.713204957367
C      0.882943981521     3.009211609352    -1.745159183962
C      0.643776040307     2.657572625073    -3.056005128144
C     -0.046478962933     1.500985737154    -3.304498290599
C     -0.479476320946     0.699946011229    -2.225846560591
H      0.604977957009     2.509524755585     0.315140262202
H      1.434902003879     3.908071111241    -1.523645093562
H      1.006460206613     3.275272507986    -3.873368087417
H     -0.234377502290     1.151720009941    -4.300066756699
O     -1.040961598929    -0.426376638891    -2.547788941239
H     -0.821859981109    -1.327453188496    -1.831988919433

