# STO-3G

title

0 1
C     -3.016866672140     1.365192441530     0.136624248857
C     -2.074571226215     2.383075135374     0.471889620323
C     -2.028608350234     2.895132609794     1.796839873087
C     -2.901977190405     2.396217801888     2.767371413350
C     -3.846802727343     1.393366343696     2.432436270273
C     -3.910255382259     0.884291877378     1.131788095599
H     -3.133407138570     1.034618403831    -0.891107176564
H     -1.505873724955     2.871619228514    -0.313175316428
H     -1.316965627047     3.676830242645     2.047959861159
H     -2.856611280317     2.772317734592     3.785625374884
H     -4.518379666777     1.011891070453     3.196811347036
H     -4.632228599502     0.115222687108     0.872061826267
C      0.860670948047    -2.263298070188    -3.326722765973
H      1.079255165912    -2.376338748552    -4.385419640543
H     -0.051829257989    -2.729681341604    -2.966134647227
C      1.635421117718    -1.539852296710    -2.484413960581
H      1.328379570612    -1.430349132621    -1.456094727433
C      2.850844832424    -0.805244236874    -2.866547067838
O      3.298729609122    -0.881656628676    -4.042730576413
O      3.471095248965     0.008355445797    -1.899480347580
C      4.640099311830     0.716083211680    -2.335813849742
H      5.043994132174     1.318340667998    -1.493805323790
H      5.432233990807     0.005743070107    -2.665714115735
H      4.393993659572     1.407466578056    -3.173671579195
Pd    -0.950529108046     0.141770265126     0.343312467775
C     -0.144863580477    -0.971601563417     2.844929378182
O     -1.098769161937    -0.167210829624     2.327855134538
O      0.050303743156    -1.133816033915     4.063980736590
C      0.715416215614    -1.706003696538     1.755676793135
H      0.945925867174    -2.705627805022     2.146789191616
C      2.018302249263    -0.988697121871     1.483117626344
H      2.612737482200    -1.563154472645     0.743044041620
H      1.816558508305     0.020519851631     1.070633821141
H      2.604752803928    -0.892516379848     2.420865313869
N     -0.062384241892    -1.692644408189     0.503718203564
C     -0.615260081720    -2.719665005827    -0.112922927818
O     -1.486865788688    -2.635335015943    -1.064959838294
C     -0.196025072434    -4.091999725265     0.239416666511
H     -0.689960910043    -4.806146512078    -0.445266168013
H      0.898233225401    -4.161608581984     0.116751077923
H     -0.511124228227    -4.307748735214     1.275047171993
N     -0.579074875332     0.600335251294    -1.632067727448
C      0.397284744871     1.528526835682    -1.873518263549
C      0.571789020021     2.030813381187    -3.145156922251
C     -0.224753413771     1.599458354032    -4.183762663911
C     -1.179688840695     0.652331040902    -3.922971300239
C     -1.312875034768     0.135873634518    -2.616120675140
H      1.019695294841     1.881114483967    -1.059306440731
H      1.340687381732     2.763563900609    -3.326821570985
H     -0.088875849618     1.990124397065    -5.188775133475
H     -1.807585196354     0.249761063493    -4.692120517507
O     -2.173524495592    -0.828059106854    -2.473022773129
H     -1.895846820018    -1.642474252379    -1.696478196654

