# STO-3G

title

0 1
C     -0.284924510261     0.852430149672    -2.888075814122
C     -0.829591407441    -0.351225742370    -3.416477943106
C     -2.191594805509    -0.400385176663    -3.805143925156
C     -2.997442402440     0.740620677687    -3.672680815883
C     -2.460185139938     1.940672085720    -3.140690860579
C     -1.115845161810     1.999733720237    -2.757344078226
H      0.788077315716     0.934071131986    -2.746683618828
H     -0.168240764253    -1.194174937998    -3.590981309697
H     -2.597079792930    -1.313471668841    -4.233004631398
H     -4.038307301308     0.712795582351    -3.987147115878
H     -3.093248198937     2.818705644719    -3.038838507840
H     -0.700652965108     2.923209913932    -2.362069402801
C      2.149148736302     1.826566578557    -0.502712588120
H      2.770271818231     1.035247588629    -0.915981106320
H      1.398277705586     2.245150221406    -1.166342934750
C      2.230562832443     2.273648386804     0.772961979151
H      1.512721863660     3.015195662185     1.080122143668
C      3.179743736205     1.747472713770     1.788929958759
O      3.935385600256     0.793864550866     1.469929537019
O      3.235675641896     2.219434357083     3.117748142323
C      2.263512364424     3.181752198309     3.547220399738
H      2.435800292079     3.412988930083     4.620612039074
H      2.364321937937     4.133240321415     2.979369015535
H      1.230646438313     2.773831777065     3.454772385357
Pd    -0.125516656121    -0.434646082655    -0.853573413552
C      1.973290436323    -2.337714395599    -1.159817001030
O      1.490776173528    -1.229746087202    -1.761576842512
O      2.833460322470    -3.087268461662    -1.657256899945
C      1.321511662306    -2.631552855619     0.235158489370
H      2.119289021254    -3.043452859591     0.866620734868
C      0.214744927972    -3.656743113937     0.128922038420
H     -0.201001655069    -3.859523880393     1.137418790843
H     -0.596404858226    -3.268172263932    -0.519270366977
H      0.609063259358    -4.602583392784    -0.298702541028
N      0.711972583422    -1.384544644630     0.745790317924
C      0.950979619412    -0.805608637386     1.903374227805
O      0.535111592903     0.370427671444     2.254982238897
C      1.763152753001    -1.500866509064     2.923582978414
H      1.311668327276    -2.485501623385     3.128639354485
H      2.796739379161    -1.583189305341     2.542633760164
H      1.779874213857    -0.898443568547     3.851403186483
N     -1.881221071218     0.261579173193    -0.052553545799
C     -3.020742547047    -0.331303799609    -0.522558551263
C     -4.248787170836     0.255607990488    -0.297825684838
C     -4.341604482552     1.440255481102     0.398403388906
C     -3.191569123887     2.003739651952     0.884421471978
C     -1.949903830195     1.366963137355     0.659327407233
H     -2.954832030280    -1.254530884136    -1.085804017893
H     -5.138484839740    -0.212967475105    -0.684146474307
H     -5.306375556368     1.909859419074     0.570274699424
H     -3.198253717113     2.908881985642     1.456756079980
O     -0.915346982273     1.931955139481     1.202188867381
H     -0.111999256298     1.130234818789     1.616741009662

