# STO-3G

title

0 1
C      0.402038774613     0.773575300605    -2.576123705622
C     -0.271205406309    -0.238757689528    -3.314566603533
C     -1.515295194329     0.044656458440    -3.930892907767
C     -2.073270634775     1.327606075545    -3.822578107972
C     -1.405934253102     2.339504974198    -3.086164873525
C     -0.179584731215     2.067448470822    -2.469529323871
H      1.419691298671     0.608119459125    -2.235618438467
H      0.215263809415    -1.198753578868    -3.454922841342
H     -2.016079777168    -0.725326217165    -4.511795479604
H     -3.017098524942     1.555676746254    -4.312784801717
H     -1.844775284083     3.331203358531    -3.004921443550
H      0.332406702178     2.844065822624    -1.906699507347
C      2.734389799910     0.583965665886     0.367084750245
H      2.708574809016     0.231896348115     1.394812428291
H      2.905871554630    -0.171809507232    -0.394525723284
C      2.512472198680     1.879226788579     0.045705186877
H      2.503467218792     2.190062721523    -0.991807245216
C      2.235521461075     2.948385994741     1.017606803184
O      1.966760874422     4.101476579285     0.583285386735
O      2.429630627514     2.712115355520     2.391317510075
C      1.978153819814     3.751267908457     3.268985125076
H      2.163056015207     3.447906449651     4.321289615640
H      2.526733153705     4.700700851288     3.075922488948
H      0.883947823118     3.918596067089     3.143614241855
Pd    -0.063646177279    -0.658229919086    -0.686083918655
C      1.345463575632    -3.126222900789    -0.920648772309
O      1.365406242839    -1.879327291215    -1.442903368628
O      2.018408844930    -4.079505037701    -1.352118327722
C      0.372731209379    -3.273634732710     0.302471162305
H      0.825705411900    -4.006903058730     0.982048168530
C     -0.987484495869    -3.782377385619    -0.117700155391
H     -1.636586351956    -3.885589720184     0.776381092103
H     -1.459672925055    -3.064392776577    -0.818325513701
H     -0.889773231159    -4.771349378740    -0.612864756541
N      0.176833560231    -1.931244420678     0.882290357952
C      0.467314154168    -1.528537210100     2.102420400617
O      0.478031925690    -0.300030208051     2.503363125410
C      0.821042443633    -2.526912566992     3.133813129705
H      0.000533592046    -3.260824033994     3.206045902507
H      1.777336231557    -2.998587655975     2.853253927896
H      0.943270052135    -2.015519346558     4.107527855149
N     -1.635465324476     0.480576604313    -0.032165588292
C     -2.806858491036     0.306863202729    -0.717241558377
C     -3.840149809900     1.207306954001    -0.562029124273
C     -3.703109558212     2.290923880543     0.276663317183
C     -2.532431807935     2.432759533285     0.972545637023
C     -1.500444412249     1.480820004747     0.811624353595
H     -2.915979597548    -0.532820432123    -1.393045517419
H     -4.752347217873     1.068660020360    -1.117653614533
H     -4.508858642392     3.010828309723     0.391892393918
H     -2.367416619129     3.244096099989     1.652273031855
O     -0.445508437125     1.671431645534     1.541572458729
H      0.096671923057     0.700835210724     1.915771575098

