# STO-3G

title

0 1
C      0.632233984177     0.787347440788    -1.735648924834
C      0.529767279674    -0.376742039218    -2.545968405710
C     -0.403560841377    -0.417947812714    -3.609448825144
C     -1.219502675464     0.696498070018    -3.866086639101
C     -1.122891819174     1.858460888935    -3.059932685521
C     -0.202180823941     1.906271611008    -2.005672222794
H      1.441821583638     0.884285887274    -1.020317005485
H      1.220452817663    -1.196936442691    -2.376136066331
H     -0.465776706735    -1.300338973466    -4.240898897746
H     -1.924650315026     0.676538564048    -4.694144795741
H     -1.758070334020     2.716837396661    -3.265550221530
H     -0.114250669459     2.799916059585    -1.391496331150
C      1.050445748805     2.030094748935     1.655110569052
H      0.308699506375     2.821493593995     1.565204602230
H      0.739708177699     1.176201096120     2.246974216683
C      2.273775572682     2.065004349593     1.077694689504
H      2.936543125700     1.216968094448     1.183574775284
C      2.791150113251     3.178410837383     0.263758494947
O      2.051348757688     4.165255019414    -0.000435955542
O      4.084479063990     3.071411728758    -0.276820115142
C      4.501904694937     4.151606651447    -1.123257899788
H      5.533449434590     3.956033017417    -1.487345115834
H      3.832055066476     4.240870078111    -2.008671607030
H      4.506224924399     5.114289438483    -0.563417085510
Pd    -0.202770228533    -0.580855174517     0.065793383912
C      1.793176516732    -2.497165360271     0.745273892783
O      1.679850112164    -1.318465373043     0.093070441800
O      2.815787568624    -3.205782200421     0.741090082152
C      0.492297858706    -2.908214713698     1.521393369895
H      0.815596285776    -3.444607423445     2.422679382360
C     -0.386167491970    -3.826913696648     0.702955734009
H     -1.284849294972    -4.102478574846     1.292687535044
H     -0.712948305545    -3.311414438132    -0.222707275205
H      0.170437446647    -4.749441201672     0.434804271346
N     -0.280626973779    -1.678370630000     1.778461578947
C     -0.629574014451    -1.172203954965     2.944540491969
O     -1.108928389923     0.012801176363     3.130156857627
C     -0.471583689713    -1.986590217647     4.168224613460
H     -1.018704218804    -2.934684355282     4.030317252495
H      0.604386491169    -2.150149488362     4.345508837124
H     -0.899697389334    -1.437250854759     5.028126685212
N     -2.147832659452     0.049089972414    -0.110643994896
C     -2.831310748887    -0.480394813870    -1.171125262625
C     -4.031312558898     0.072055777096    -1.567778938670
C     -4.551070711718     1.162416884103    -0.906774296534
C     -3.864097174522     1.661073957959     0.167611156570
C     -2.648680440699     1.059218289679     0.564055715321
H     -2.421693830610    -1.328537050242    -1.706319261475
H     -4.553164958664    -0.344285918044    -2.413017047571
H     -5.489766769173     1.609445708214    -1.222730198476
H     -4.222771354865     2.495095243268     0.736627235538
O     -2.092700909123     1.573203267423     1.620138598854
H     -1.515992781438     0.840964630885     2.291487411965

