# STO-3G

title

0 1
C     -1.634038263840     1.348884233392    -1.813684175656
C     -1.140919782585     2.677121578903    -1.943061543468
C     -1.676065581848     3.705572874273    -1.160544759778
C     -2.715792323425     3.431044038337    -0.234376255683
C     -3.209662477881     2.126830902182    -0.091772313162
C     -2.677200087418     1.076863609754    -0.884365132873
H     -1.311096081323     0.583689754343    -2.512380840306
H     -0.345807863054     2.887479729959    -2.653675703585
H     -1.297251482826     4.719653685488    -1.264221895913
H     -3.135033906167     4.242050639863     0.356815209490
H     -4.022013236215     1.918707066096     0.599652917039
H     -3.111852596654     0.082810482754    -0.854082227328
C      1.333567871067    -0.299309845950    -3.174642271546
H      2.140089229328    -0.663270986046    -2.546574996999
H      1.335390927973     0.773730661001    -3.350680305474
C      0.379149343735    -1.109704618635    -3.686478514234
H     -0.410835355388    -0.703723525774    -4.304999529808
C      0.286793623127    -2.560108471693    -3.447466363429
O      1.101097872112    -3.129642838310    -2.666310300067
O     -0.676679106150    -3.294883809237    -4.160375630128
C     -0.778985614850    -4.685842589435    -3.826287796768
H     -1.575656245727    -5.153929127900    -4.443006503552
H      0.178801659515    -5.215017025511    -4.030717498367
H     -1.055333552695    -4.815177245816    -2.755449743772
Pd    -0.394972808696    -0.038069817652    -0.266912026896
C     -1.283544149802    -2.744097659193    -0.333947716954
O     -1.439481832431    -1.595086891492    -1.026762889736
O     -1.982244774431    -3.761688296136    -0.501407829709
C     -0.133466430368    -2.689865705965     0.730896595854
H      0.335682191948    -3.682118529018     0.730553028978
C     -0.665986428950    -2.411110302829     2.118264779309
H      0.173939085698    -2.408599668077     2.843295797914
H     -1.156779306229    -1.417225582875     2.139412113867
H     -1.398211442155    -3.192424678164     2.411609027280
N      0.771646327732    -1.577308130848     0.381734287894
C      2.060140872655    -1.659436836099     0.115936510977
O      2.791544887386    -0.702494103083    -0.361514649895
C      2.789848191204    -2.914983170832     0.392845928311
H      3.866000617507    -2.756687521861     0.196020739241
H      2.641561354959    -3.181219964838     1.452002975559
H      2.414761705203    -3.695576781574    -0.293222841828
N      0.498262843154     1.568844318269     0.639177840389
C     -0.227707498807     2.170804866866     1.629758931672
C      0.142692235468     3.413388746407     2.100989553520
C      1.241725212933     4.059711077840     1.579963621943
C      1.967300090780     3.429698709162     0.603994687995
C      1.575840734158     2.147217273804     0.157160358665
H     -1.103950516512     1.676246161635     2.031813864619
H     -0.443010103840     3.883981616094     2.872743867720
H      1.532687423250     5.042068046026     1.942015738320
H      2.844132150578     3.867792226399     0.171897124484
O      2.341176485145     1.604278250104    -0.739486339875
H      2.473990105451     0.432907032207    -0.626572924698

