# STO-3G

title

0 1
C      0.455434298741     1.246978320630    -2.101818169698
C      0.106440095708     0.242539841941    -3.048019243940
C     -1.117159941534     0.335526523706    -3.760157760511
C     -1.972821299571     1.424637773032    -3.542557033123
C     -1.625000123171     2.432087820715    -2.605193776317
C     -0.424362513945     2.345527567268    -1.892587381097
H      1.446108305438     1.263796799120    -1.655267401463
H      0.824042910478    -0.539110759872    -3.276246590269
H     -1.366770096641    -0.421510123317    -4.499048991431
H     -2.899393492793     1.512088741774    -4.105544099208
H     -2.287793393975     3.280371494543    -2.451345113652
H     -0.148905984314     3.126312927910    -1.189504177264
C      2.707741417161     1.142579992580     0.683719810405
H      3.478177916594     1.187033524033    -0.083608707259
H      2.505604047296     0.157082581045     1.088371769586
C      2.006856916332     2.217692515347     1.119752913397
H      1.242411654996     2.046596988957     1.856274056102
C      2.206264647681     3.605089767146     0.624702145229
O      3.113468400308     3.817419357139    -0.218030593962
O      1.381119390510     4.686788140647     1.000446748977
C      0.286412311924     4.443756119748     1.894569756448
H     -0.253424605785     5.399060925532     2.071265648261
H     -0.440136959240     3.725891892098     1.452481236754
H      0.647485435099     4.076741450929     2.881359061004
Pd     0.176798643034    -0.616930095447    -0.573400447633
C      2.070947452803    -2.695559834608    -1.029437346851
O      1.871996398711    -1.399566226115    -1.356157336048
O      2.935176898094    -3.428465420790    -1.542784195826
C      1.089227106940    -3.214663141832     0.081632383060
H      1.644772014375    -3.945277964050     0.683613115991
C     -0.121275296255    -3.900841114530    -0.508658636911
H     -0.780181032526    -4.258360728239     0.309535146499
H     -0.691013209514    -3.187999411351    -1.138247552570
H      0.194465753416    -4.767442643757    -1.126865392717
N      0.602900843665    -2.037131228332     0.827118498656
C      0.793716229429    -1.757457545046     2.098220247064
O      0.545413204011    -0.614684499406     2.657464837588
C      1.343847951858    -2.788958810196     3.001914531890
H      0.694581993918    -3.679777622308     2.952303699537
H      2.378554499758    -3.013031061487     2.692755532620
H      1.353318675337    -2.399333846583     4.037599973022
N     -1.647223567509     0.047448658187     0.087371996700
C     -2.695257726701    -0.248107311940    -0.741241658031
C     -3.924044801121     0.345271161895    -0.541541494108
C     -4.109368185959     1.241308810585     0.487018390007
C     -3.053893607814     1.506535298065     1.318759596451
C     -1.812945105790     0.865013548315     1.103553062190
H     -2.554574777179    -0.941255154671    -1.561848378800
H     -4.738265022751     0.114946793968    -1.208397614480
H     -5.073483587002     1.718264951998     0.642003018372
H     -3.141168372452     2.175370020334     2.150636951318
O     -0.883019991974     1.154284319450     1.960677305322
H     -0.105579334938     0.284367616529     2.211804489132

