# STO-3G

title

0 1
C      0.640518370399     0.159438660531     3.086241699179
C      1.858014039588    -0.451708714320     2.678375564245
C      2.167952797394    -1.766839439189     3.104187144198
C      1.274712023607    -2.460773383274     3.935153592914
C      0.058027850226    -1.856914377845     4.341709010936
C     -0.255134652356    -0.557233404220     3.926544992203
H      0.478781032686     1.213115888172     2.885013325499
H      2.571310452749     0.131603690187     2.104590751358
H      3.110044000029    -2.220914476146     2.808425360785
H      1.516792224301    -3.463683582677     4.279423228107
H     -0.630043933934    -2.402397637317     4.982937096422
H     -1.183637085765    -0.091283172379     4.246690216802
C     -1.684430960730     2.437118155647     1.855851862455
H     -0.762691595566     2.831548332440     1.434231077167
H     -1.585816712372     1.786443799916     2.720245714612
C     -2.912131638355     2.671097658693     1.341231755804
H     -3.777284601298     2.197287197422     1.784421728545
C     -3.191000082114     3.484600263617     0.147045173163
O     -2.240466151230     3.958417299002    -0.535864677236
O     -4.530791335503     3.710795374186    -0.217371756684
C     -4.736651446681     4.518130715961    -1.384759663528
H     -5.827222342190     4.627372490524    -1.567893846439
H     -4.303728045728     5.534473114149    -1.243503954859
H     -4.279320449645     4.041378317119    -2.280546626482
Pd     0.087569353764    -0.028480163125     0.728147564126
C      1.719970300763     1.808289237423    -0.723086446875
O      1.293048928800     1.598273288417     0.543757721363
O      2.558464361940     2.667372203156    -1.050972958225
C      1.083591005884     0.766870190019    -1.715036519250
H      1.653724957487    -0.163525261066    -1.578746252632
C      1.204251121321     1.144798708771    -3.178181078383
H      0.692756811067     0.392962938238    -3.811185432655
H      0.812347292384     2.163552337435    -3.356479678375
H      2.277327449939     1.155306821412    -3.462930622211
N     -0.291240706753     0.467064098340    -1.232113240840
C     -1.518608630877     0.848358744539    -1.548482187700
O     -2.559665388398     0.640500286042    -0.815401051922
C     -1.803757206929     1.582850569313    -2.796783069894
H     -2.892157700225     1.762954496868    -2.864214111266
H     -1.300075754425     2.561224691185    -2.736814930729
H     -1.494221561708     0.975661806853    -3.660232600066
N     -1.013058913533    -1.746837269699     0.941973924162
C     -0.304210998256    -2.913835282549     1.022422943318
C     -0.918488282185    -4.066660895003     1.466810068538
C     -2.246880002988    -4.055434736965     1.831081660586
C     -2.944262418246    -2.882045948590     1.717777782813
C     -2.292220308847    -1.724112660564     1.238221289663
H      0.745358064435    -2.926390038972     0.753790892167
H     -0.347837233306    -4.977276410438     1.539341949285
H     -2.733384638412    -4.958920453245     2.188604764019
H     -3.985083842850    -2.810425603077     1.961023814837
O     -3.039518174213    -0.666841713886     1.118625066646
H     -2.723941766004     0.034653937021     0.269327777779

