# STO-3G

title

0 1
C      0.159647706513    -2.433661408811    -1.329363687385
C     -0.121885686409    -2.856300266817     0.001396476457
C     -1.166968045052    -3.787565527080     0.241064670155
C     -1.914365152735    -4.291321156816    -0.831984492961
C     -1.638303789493    -3.868241808319    -2.158693784885
C     -0.610790327536    -2.952941694228    -2.407288164457
H      1.043938521646    -1.840715312393    -1.542980550478
H      0.532231108669    -2.537352702104     0.806907386809
H     -1.359076162595    -4.129855963831     1.254605589480
H     -2.703089026500    -5.019054738826    -0.654995786699
H     -2.224281271091    -4.263284933390    -2.985222136387
H     -0.390350923021    -2.633717339266    -3.422412567198
C      1.145008797509     0.393142189022    -3.279394934404
H      1.133875851881     0.631906345052    -4.340347326076
H      0.184491804992     0.097129201413    -2.868355175372
C      2.245396973274     0.488009554866    -2.496825466672
H      2.174172617252     0.266400278583    -1.439722760709
C      3.576653999930     0.905017490774    -2.968741764884
O      3.758855774133     1.186506423438    -4.184792223395
O      4.624913708410     0.993121703385    -2.035990314090
C      5.898143310808     1.398052223146    -2.557866416839
H      6.640616384257     1.429081648560    -1.731610373363
H      6.259462405812     0.674696743724    -3.323632949668
H      5.835693476884     2.414319010589    -3.008838705180
Pd    -0.699068974733    -0.377320849797    -0.402217671389
C      1.138389479429     0.780270913557     1.438460983135
O      1.096283476934    -0.211156289971     0.519115647509
O      2.059495092192     0.939253030673     2.258483559072
C     -0.105526495370     1.735153852848     1.384279900605
H      0.257252154003     2.739207400443     1.638942481191
C     -1.165155149146     1.339313085499     2.387221757955
H     -2.015663711300     2.049543165096     2.327024202910
H     -1.537224785410     0.319657603209     2.161770225230
H     -0.745643716275     1.360298606160     3.415066982802
N     -0.709305093301     1.614305631612     0.042273692374
C     -0.869382759736     2.564841004420    -0.852740267579
O     -1.236831793406     2.393660482410    -2.083239920650
C     -0.615989601091     3.971862437456    -0.478735673616
H     -1.251249974089     4.225149567657     0.386791394347
H      0.458003165135     4.086127128605    -0.255228253359
H     -0.876884638771     4.629282338637    -1.329907975199
N     -2.582514143253    -0.624185178862    -1.156775006648
C     -3.443582032219    -1.366638692723    -0.396692611444
C     -4.640644913395    -1.797540503306    -0.928873681999
C     -4.980770865950    -1.488594579150    -2.227170325418
C     -4.115245714788    -0.725615547331    -2.964804299453
C     -2.903689948119    -0.280578378112    -2.388160755619
H     -3.176825320822    -1.626914073146     0.620662268157
H     -5.306209263245    -2.391814652340    -0.325423754094
H     -5.918984437379    -1.833470241229    -2.653404108411
H     -4.328569735969    -0.435248542878    -3.973750914152
O     -2.160778682395     0.465902306906    -3.139155472752
H     -1.585829164644     1.405766616502    -2.577804599301

