# STO-3G

title

0 1
C     -0.778037875126     2.217069853541     1.879556793032
C     -1.763592651770     3.061583365675     1.298611021891
C     -3.103795993617     2.658778468210     1.260286496726
C     -3.484615671300     1.405323804877     1.802815148421
C     -2.522473936114     0.558077808727     2.374874231512
C     -1.165646649029     0.961821744372     2.423375935375
H      0.227097189907     2.596420610902     2.039577138025
H     -1.467783246580     4.023555790790     0.888301852963
H     -3.854796140012     3.310399158598     0.820037566541
H     -4.530733278316     1.107949306524     1.783757563511
H     -2.817333392694    -0.393606392098     2.809131623492
H     -0.421225679936     0.358419197209     2.932842672316
C      1.542430143315     4.221139520859     0.408360475242
H      1.095972451861     4.729588782653     1.261727142607
H      1.051420044491     4.354823004257    -0.552510493763
C      2.637454156083     3.432773295620     0.514329877632
H      3.020416751502     2.949330853729    -0.371014674937
C      3.343972991894     3.114997295159     1.764694215175
O      2.976211990345     3.642260247625     2.850209638168
O      4.449826753952     2.247932233600     1.705675391773
C      4.954984630988     1.802614280817     2.972065374840
H      5.800078059329     1.101140751567     2.806929580320
H      5.321848951117     2.661246882464     3.578362562049
H      4.165721090516     1.257316870285     3.539868454127
Pd     0.416802234257     0.875355499493     0.247575870096
C      2.468743238277    -0.626368499659     1.549509514847
O      1.720858110233     0.480865567709     1.758853242327
O      3.246167958286    -1.121837933714     2.386363952588
C      2.182409321199    -1.239361629372     0.129105458909
H      1.231546689480    -1.784026341427     0.215436170047
C      3.220771325424    -2.235941808161    -0.347363357789
H      2.994452716483    -2.557841299807    -1.383326453051
H      4.240725144016    -1.816618452615    -0.264871536165
H      3.186168105392    -3.134263369550     0.304209303438
N      1.910627066431    -0.098921535678    -0.785525235807
C      2.602462006309     0.600423102010    -1.666768326814
O      2.226409927911     1.739205929349    -2.149749588351
C      3.924475157382     0.150993543233    -2.143817742529
H      4.615528735996     0.139746554646    -1.285692996471
H      3.814475593700    -0.828106779787    -2.632254787200
H      4.307519375324     0.874171821379    -2.888615512150
N     -0.984925935468     1.164386833233    -1.222480261499
C     -2.120164620399     0.408557771488    -1.112780678771
C     -3.228807403518     0.710680956547    -1.876325357375
C     -3.205873858828     1.772865085675    -2.752595749655
C     -2.051929405916     2.502545977838    -2.861917358874
C     -0.927045903214     2.154339480960    -2.081596100672
H     -2.151044406307    -0.419073626728    -0.414251604462
H     -4.121481462846     0.116756193265    -1.772826837456
H     -4.079030785337     2.020072947182    -3.350394237387
H     -1.961338889874     3.328029064828    -3.538868444256
O      0.134776042143     2.880129093845    -2.280440989336
H      1.128603038942     2.354450032635    -2.104708649650

