# STO-3G

title

0 1
C      0.719981201185     0.913694093848    -1.729733229411
C      0.648731951350    -0.200461280484    -2.610316540745
C     -0.264940953166    -0.192368294242    -3.691071268908
C     -1.085756874899     0.926568946043    -3.905285924491
C     -1.014379667639     2.043499920703    -3.035450636757
C     -0.121367988954     2.037771912949    -1.956713136333
H      1.515400243033     0.977490042489    -0.991264131380
H      1.340675368853    -1.024680496645    -2.470027903972
H     -0.305973118230    -1.041385279524    -4.368296385660
H     -1.773018029300     0.945642591575    -4.748246978842
H     -1.649864986181     2.908988725110    -3.208159369652
H     -0.069338077209     2.895973400856    -1.291455910457
C      1.824279128065     1.231619165003     1.741630138425
H      2.738359396250     0.812486893738     1.327680120778
H      1.248845155141     0.575941012283     2.386838552272
C      1.380971120538     2.485425645337     1.486288872043
H      0.434437231133     2.809453680922     1.898962777751
C      2.079011315730     3.463068190467     0.636721489039
O      1.528082365445     4.573032383407     0.409681766954
O      3.269490244336     3.092787734393    -0.016434298920
C      3.809722249815     4.056025497534    -0.931273321679
H      4.743369068091     3.653382164128    -1.379720487485
H      3.090236703114     4.263273894987    -1.755880799069
H      4.056519829487     5.006326855393    -0.405856385035
Pd    -0.083247310908    -0.605996455521    -0.010613489228
C      1.720353617575    -2.788139362664     0.305374986173
O      1.708549600475    -1.526735346965    -0.180963526648
O      2.657943714492    -3.591411153947     0.151432187394
C      0.414756240896    -3.164915795656     1.091062499292
H      0.712941695467    -3.850802227478     1.894344791653
C     -0.592412737851    -3.866185243765     0.208263647424
H     -1.491812218225    -4.124093587633     0.804857784771
H     -0.896816647065    -3.197840147141    -0.622504403226
H     -0.152928130150    -4.796550526890    -0.208917672266
N     -0.206148156151    -1.907683048534     1.549738831323
C     -0.438428284974    -1.528725989417     2.790156305743
O     -0.768457269449    -0.333743339135     3.155641931136
C     -0.315786614475    -2.511680770997     3.887522212338
H     -0.973283321520    -3.369018088262     3.663826131010
H      0.741680823845    -2.811466193229     3.975547332445
H     -0.637490296113    -2.040014622188     4.835447311358
N     -1.957664427198     0.229598590973     0.008428934352
C     -2.729767706549    -0.080217493242    -1.078149874698
C     -3.884943954740     0.629349726496    -1.332067841151
C     -4.270892278520     1.657101389215    -0.500998523892
C     -3.497012607624     1.934867936401     0.593926464397
C     -2.331036921402     1.175731441188     0.840207502059
H     -2.423472011706    -0.875404002004    -1.747181765810
H     -4.476299654615     0.386695631477    -2.199011850782
H     -5.173215899546     2.227782491886    -0.703428464140
H     -3.749935862881     2.710403120847     1.288741712666
O     -1.684338703274     1.487371690140     1.923203795474
H     -1.141110691680     0.624019458938     2.457432046011

