# STO-3G

title

0 1
C      2.173406499837     2.742107526325    -0.846951924451
C      2.878598993151     1.881617512919    -1.713752895480
C      3.914135147288     2.394720356820    -2.521763057617
C      4.239462130027     3.764958028123    -2.479579891120
C      3.522537076428     4.623403150754    -1.624750603431
C      2.489276287563     4.116660484853    -0.806879722222
H     -0.355762297479    -1.680867997369     2.465365823073
H      2.615278211646     0.827572038719    -1.772609107768
H      4.455670063038     1.724731807123    -3.186745721137
H      5.036623485707     4.157454779963    -3.106697116515
H      3.763051560384     5.684300375999    -1.589058230636
H      1.943882824000     4.797403121134    -0.155581783940
C      2.145991409266     1.246026922869     1.825649525366
H      1.630964790299     0.393032693304     2.257876616043
H      3.017005508583     1.032678823655     1.213788170293
C      1.831921119606     2.557176029072     2.180582816773
H      2.444945941583     3.364820786204     1.810887229287
C      0.866867243844     2.941322471386     3.225912305251
O      0.550475376170     4.156408518617     3.324335998938
O      0.377152045246     1.980981012773     4.124066898418
C     -0.640715930296     2.424986664005     5.029962450473
H     -0.951443828108     1.573132214140     5.672527569241
H     -0.260053285328     3.238943248379     5.687177286255
H     -1.535782157836     2.780535036873     4.471363312288
Pd     0.702316475182     2.006906990232     0.271076896273
C     -1.073058024786    -0.114154699615     1.652534188157
O     -0.176495000483    -0.686817563044     2.500580681238
O     -1.058466496119     1.114908563031     1.423627519359
C     -2.033349447336    -1.148310413996     1.019001262237
H     -2.164822772554    -0.862189969662    -0.030841012241
C     -3.382603777458    -1.146765841443     1.699836837936
H     -4.046052226714    -1.884102322786     1.203233226077
H     -3.255581719045    -1.444227035256     2.762181073418
H     -3.843546053894    -0.139015850398     1.644426756953
N     -1.444153176426    -2.478296724395     1.252408026434
C     -0.837596471688    -3.114476613433     0.287225105955
O     -0.569510104717    -2.718317783343    -0.952492028975
C     -0.375782318695    -4.464529324211     0.629855456214
H      0.136932991142    -4.914480381675    -0.237916877707
H      0.313997905197    -4.369329518603     1.485989945399
H     -1.257529588948    -5.062647970194     0.918357298695
N     -0.402856749700     1.850168492292    -1.475369997776
C     -0.927617616698     2.870840600791    -2.216212603642
C     -1.667958017575     2.587250103607    -3.345846637260
C     -1.876810510194     1.282841436546    -3.740274343891
C     -1.329826887962     0.274525930258    -2.988607782345
C     -0.569280498814     0.598140084673    -1.839829353646
H     -0.769877076334     3.898222240614    -1.909152150078
H     -2.082258848457     3.397051997671    -3.923658437547
H     -2.456565581683     1.059093597986    -4.631919400707
H     -1.442134634278    -0.755938564641    -3.259681660572
O     -0.042910374996    -0.375687191509    -1.167666027514
H     -0.388094054150    -1.653976447755    -1.131771325568

