# STO-3G

title

0 1
C      2.647653523665     1.327741867390     1.885366344337
C      3.700077609375     0.429296557050     2.148949420901
C      4.852548458638     0.866500889533     2.830461041209
C      4.955818762156     2.208125827496     3.249633541837
C      3.906791652138     3.110351119000     2.983289492964
C      2.754685984956     2.669523033849     2.302243180250
H      1.759292048305     0.982144454657     1.360809591356
H      3.623601276738    -0.603688435773     1.815038495979
H      5.663895633406     0.169683961804     3.028649428506
H      5.845867684980     2.547612773346     3.774592416988
H      3.986793404097     4.147190894750     3.302103707251
H      1.949153296163     3.370983944436     2.092105332599
C     -0.822732353639     1.205701689919     2.836900564818
H     -1.856008666314     1.533888100737     2.761713212206
H     -0.068604687295     1.960698215517     2.634968799327
C     -0.459104848269    -0.022630040915     3.365307949789
H      0.585524303015    -0.232376343133     3.548880305331
C     -1.423401488426    -1.004696490366     3.885694868280
O     -2.612126341947    -0.959419204163     3.473295840117
O     -0.932072353657    -2.109267407610     4.595192232979
C     -1.897482829493    -3.112800557724     4.943077113852
H     -1.387237362097    -3.952132357405     5.464612859520
H     -2.675833416798    -2.698402530019     5.622175691813
H     -2.386201624752    -3.529752700801     4.032750181613
Pd    -0.633202073707     0.046641576059     0.896866140735
C     -1.003929307547    -6.118089211386     3.018338741203
O     -0.992315066823    -5.084084190409     2.421155598183
O     -1.016377995873    -7.141604603473     3.629017886290
C      0.569717108942     2.640108537507    -1.398543015089
H     -0.104674585442     3.460914299985    -1.153148385592
C      2.014684357221     2.900851077195    -1.679139771343
H      2.607396530173     2.732254339303    -0.758099504596
H      2.372568684409     2.214937884582    -2.474778274571
H      2.144714962199     3.947583838350    -2.018442617557
N      0.264170066837     1.383826091122    -1.383891392579
C     -1.017825038463     0.896690704392    -0.976849320601
O     -1.804095149818     1.587563443309    -0.177391551051
C     -1.590671499358    -0.127943747086    -1.857239531248
H     -1.571036466434     0.267584567891    -2.889367783041
H     -0.976442699718    -1.044192305558    -1.798764444238
H     -2.635359432026    -0.332388364246    -1.555546647518
N      0.768520900040    -1.563654842736     0.565268528220
C      0.697845148712    -2.651446445627     1.398074553416
C      1.687120319993    -3.608946194184     1.370421911013
C      2.733451711355    -3.517667425903     0.485501286379
C      2.771624345697    -2.439720336846    -0.356934916446
C      1.750626444018    -1.466130198384    -0.295126076386
H     -0.125470451887    -2.743922530313     2.091598734716
H      1.608090798757    -4.458557702241     2.032753575640
H      3.503325480694    -4.284212473528     0.451263327441
H      3.555799622004    -2.314206996736    -1.077501676702
O      1.911307021578    -0.498171797147    -1.166419145575
H      1.189154677632     0.309763207502    -1.281865718171

