# STO-3G

title

0 1
C     -1.367052876989    -2.334367686404     1.460227972301
C     -1.370051477709    -2.890029296998     2.754796153231
C     -1.543819963406    -4.278233699554     2.927358074400
C     -1.713711112815    -5.111172429160     1.803272858888
C     -1.709355136727    -4.555293460267     0.507894698147
C     -1.536884219138    -3.167825792270     0.335469966770
H     -1.231304569173    -1.264571701235     1.320487292138
H     -1.240725456490    -2.246683843734     3.622758476546
H     -1.548288874104    -4.706958512760     3.927288306826
H     -1.848388110987    -6.182667475391     1.935122003335
H     -1.838900867163    -5.197360545574    -0.360735299988
H     -1.526375666990    -2.737943271861    -0.664204516986
C     -1.871026572379     1.713149931075     0.915598168868
H      3.706913209592    -0.103936737055     1.292982983639
H     -2.382515085214     1.131936669585     1.683337445530
C     -1.844932169171     3.054029541256     0.818853922766
H     -2.368135491628     3.673889618042     1.538106665705
C     -1.080216421314     3.765642143867    -0.212256113377
O     -1.109756273254     5.024012128786    -0.239786815096
O     -0.396020392277     3.019641911074    -1.190608188846
C      0.425897578758     3.777905396424    -2.089456875531
H      0.914596345165     3.092674974374    -2.815164875976
H     -0.180737504260     4.515510345832    -2.661462736125
H      1.233002802984     4.306591847439    -1.532483526047
Pd    -0.810250266340     0.583766529365    -0.291403069445
C      2.336312156577     0.731514841400    -1.416851423544
O      2.818638692181     1.833981064478    -1.106672113223
O      1.667410762364     0.517109993677    -2.566201517451
C      2.690094560100    -0.509579378424    -0.504369801554
H      3.705630040945    -0.786511258962    -0.816880300168
C      1.820451664649    -1.742320662029    -0.624752357113
H      2.213710768114    -2.535510195735     0.044977074413
H      0.786670463495    -1.514999968865    -0.314131728805
H      1.827917977289    -2.126776785426    -1.665268036830
N      2.773126803870    -0.118164116865     0.906562367797
C      1.786124590397     0.417421980289     1.640364950605
O      0.587517749860     0.588188039989     1.290784981841
C      2.152533756413     0.818759699780     3.012023120012
H      1.262520239084     1.225917017764     3.523280817234
H      2.527774771143    -0.075154782000     3.537824681517
H      2.938898583843     1.591412214246     2.943501744851
N     -2.192573798476     0.493977207735    -1.763159934860
C     -3.416618867035     1.058179559293    -1.980593892904
C     -4.078802636525     0.807019003133    -3.166619609971
C     -3.514617230490    -0.002911066399    -4.132832507601
C     -2.279331448308    -0.551176130386    -3.892454405065
C     -1.626949316544    -0.267302542650    -2.673846414473
H     -3.866707022130     1.691828641082    -1.225383582596
H     -5.045775871035     1.251911613018    -3.335998398756
H     -4.037131016245    -0.199849206591    -5.065242867449
H     -1.784838335089    -1.183616330274    -4.601276849227
O     -0.451032651074    -0.783097707077    -2.456221897155
H      0.827358761881    -0.104035266747    -2.561470703110

