# STO-3G

title

0 1
C      0.619246739580     3.038772670882    -0.089507671461
C      1.972596053185     3.400529440741     0.090000176272
C      2.348091941108     4.759433073128     0.100586739478
C      1.379434009494     5.766659635338    -0.076897595137
C      0.031501405447     5.407344639921    -0.264217149118
C     -0.351170003316     4.048496187495    -0.270132422981
H     -2.138683180608    -1.149428860163    -0.216592868799
H      2.736240805929     2.635389612196     0.220842126497
H      3.394060219618     5.024126004146     0.242960193459
H      1.671507576268     6.814128813731    -0.070924921304
H     -0.724615216288     6.177792838935    -0.401635408617
H     -1.400117664440     3.796471626697    -0.413266009749
C     -1.471046058414     1.294346860538     1.478420074635
H     -1.875663655004     2.300764186801     1.456193548276
H     -2.137988511762     0.497462218589     1.166267880090
C     -0.267615371146     1.016058734378     2.124143230889
H      0.056826703648    -0.008123521608     2.254957867390
C      0.510319256629     2.007720681889     2.888210534942
O      1.630837102718     1.672320204961     3.351123139643
O      0.013662519642     3.314347402357     3.038736824724
C      0.900514975075     4.254575498050     3.659758435882
H      0.405847429058     5.248125693095     3.709612782999
H      1.154343755202     3.936229251726     4.696203192644
H      1.835617492935     4.365933557046     3.065370275603
Pd     0.094411727749     1.109692378234    -0.155853006936
C      0.076963475402    -1.917505816236     0.332182866195
O      1.327086398425    -1.797438643427     0.577535506338
O     -0.602058723613    -0.965980137151    -0.263787687530
C     -0.663483436923    -3.194211074686     0.806317189751
H      0.032791275365    -3.683824336101     1.494660074598
C     -0.922163752991    -4.142993373783    -0.349681306863
H     -1.361531321910    -5.086102820184     0.037299233996
H     -1.641203411457    -3.678281701825    -1.055611491821
H      0.024455799520    -4.376089656428    -0.880003605940
N     -1.932584147135    -3.016618260350     1.521093030512
C     -2.917322984003    -2.251069664197     1.222576732622
O     -3.040261559293    -1.318270680647     0.222385995043
C     -4.107542475692    -2.377970429326     2.069230229341
H     -3.806669602551    -2.151595689630     3.105886244003
H     -4.882852275355    -1.673902769075     1.721634671199
H     -4.466250266335    -3.419168512012     1.994456563485
N      1.225008999439     0.977137008477    -1.896096497807
C      0.891708831770     1.758129740217    -2.970519927048
C      1.735000669153     1.833624975844    -4.058760359911
C      2.916932923164     1.128037627858    -4.076924730529
C      3.225356194312     0.348801046341    -2.993791254504
C      2.336069121043     0.286590723483    -1.898276268641
H     -0.034030033397     2.321718351205    -2.961831101360
H      1.466094482275     2.455700976862    -4.896563183840
H      3.588025051268     1.187241686740    -4.929683450761
H      4.129527578018    -0.224967221381    -2.946484546540
O      2.748039153100    -0.485673528109    -0.925955867731
H      2.095458107686    -0.932953043040    -0.202027692671

