# STO-3G

title

0 1
C      1.569844323490     2.830034048314    -1.588819552501
C      2.934189101171     2.708777411454    -1.927922833535
C      3.517991432871     3.603680512417    -2.848670254795
C      2.742698430519     4.617284935218    -3.444866192682
C      1.378925362819     4.733776308985    -3.114853711083
C      0.791838724107     3.845951472026    -2.188085952323
H     -1.944915093417     0.198219955459     0.863613344173
H      3.542946198280     1.918386977099    -1.491659286535
H      4.571793979386     3.502074523279    -3.100743716562
H      3.194725201294     5.304601641306    -4.156120333647
H      0.771660151879     5.513165847225    -3.571071494001
H     -0.264311060864     3.956538906234    -1.945604809939
C      1.574299742813     2.560130891800     1.430688853200
H      1.658768458769     1.774266913282     2.176554355809
H      2.507384766292     2.910489322427     1.002711422358
C      0.378479788998     3.240948050475     1.190179439700
H      0.388990996473     4.102237915513     0.539405078299
C     -0.838607538189     3.096876598736     2.009023422466
O     -1.799247010801     3.880545223734     1.790880650311
O     -0.819461261679     2.251752835959     3.132375267603
C     -2.000168561499     2.266493771140     3.946093005845
H     -1.907493634624     1.495795083616     4.742071412741
H     -2.133950041257     3.261180423942     4.426868080913
H     -2.903557625580     2.028809009475     3.340723359613
Pd     0.681642930135     1.544469794936    -0.338030603801
C      0.151747768208    -0.564269690856     1.792291654784
O      1.427849521041    -0.717440854235     1.777567413870
O     -0.437539065431     0.220904390055     0.927445549836
C     -0.680517873187    -1.301016069868     2.885275811797
H     -0.204574466063    -0.982655887775     3.826499001953
C     -0.475263956211    -2.800695505285     2.783806336174
H     -0.941338164880    -3.301183493134     3.658687943556
H     -0.965338747524    -3.173519051097     1.861606172659
H      0.605251756537    -3.054363934616     2.764258389078
N     -2.114173224886    -1.115828482287     3.044982345770
C     -3.016591303903    -0.596146958728     2.298325394186
O     -2.920561708692     0.064268925421     1.106105959590
C     -4.389905994725    -0.707824554016     2.803196464630
H     -4.623553371371    -1.781622197728     2.894448980922
H     -4.422924375675    -0.224042320777     3.792682218410
H     -5.087186173680    -0.215218959496     2.101930794409
N      0.999534419192     0.068018811087    -1.778519468163
C      0.411985425572     0.155359371240    -3.011821568220
C      0.823989955953    -0.676585300404    -4.031878958691
C      1.822151423252    -1.601480331980    -3.820054487042
C      2.387792342617    -1.674854455311    -2.574166672042
C      1.936217243396    -0.814208686876    -1.550384084237
H     -0.369509768646     0.885750036860    -3.186991252714
H      0.359437328997    -0.596997944212    -5.001015319483
H      2.151744533256    -2.257976219900    -4.620966063841
H      3.165650279580    -2.375337488869    -2.344268070488
O      2.555631107128    -0.975096615353    -0.403891648214
H      2.101991824411    -0.711756826125     0.521742427580

