# STO-3G

title

0 1
C      1.359871445668     2.697463472920    -0.529600315620
C      2.757453941542     2.867993642822    -0.452004616491
C      3.341636588782     4.095397952102    -0.829850228696
C      2.537465223227     5.153831426209    -1.294806959145
C      1.142620468607     4.981025485651    -1.380988645642
C      0.552148701240     3.756634495263    -1.002416313699
H     -1.951765509198    -0.686271242981     0.993026444747
H      3.396229466128     2.054976128995    -0.111758223133
H      4.420732224799     4.218011442485    -0.762003021123
H      2.991946966601     6.098708644909    -1.582935279560
H      0.514067702052     5.794907243373    -1.736259536950
H     -0.529541073245     3.648898976935    -1.066763391924
C      0.883903210644     1.111987666957     2.138964091450
H      1.801871641977     1.673165476379     2.286612141198
H      0.946010027880     0.048847504447     2.346376257135
C     -0.345272185733     1.742668929496     1.949858827979
H     -1.255675534908     1.159988171003     1.953833305886
C     -0.541847658475     3.201938851436     2.026774730443
O      0.412682151285     3.946658251615     2.373864071851
O     -1.788450012753     3.734970060629     1.658753984417
C     -1.899367789726     5.164083444913     1.720077447105
H     -2.921402283062     5.468467420939     1.407357533894
H     -1.730764663191     5.529517208083     2.758657145159
H     -1.165286719343     5.648171143515     1.035994025918
Pd     0.510405184555     0.947305843773    -0.076491516019
C      0.093895166300    -1.929916898608     0.926243249835
O      1.362312311923    -2.061765630110     0.822405589634
O     -0.543939077971    -0.915152892375     0.390314632434
C     -0.698684139845    -2.957098998056     1.775729607705
H      0.064132921729    -3.575781082810     2.258171058297
C     -1.556032955810    -3.857338174487     0.905402434059
H     -2.033130467396    -4.635884643904     1.536626117316
H     -2.352141066332    -3.254909109533     0.420903341066
H     -0.936194313152    -4.350725867459     0.128451611062
N     -1.558364471713    -2.418202391508     2.837912691672
C     -2.383506698968    -1.438481819279     2.767606448819
O     -2.639672184259    -0.573293488232     1.733032102361
C     -3.188367980386    -1.189179712645     3.967255277302
H     -2.494371067471    -0.985116620517     4.799697513484
H     -3.853551368279    -0.326470924419     3.790189225089
H     -3.777881377652    -2.098924953976     4.174564623132
N      1.079161889169     0.320228114885    -1.983034948039
C      0.579399171183     0.952929342234    -3.089946046965
C      1.124104370329     0.706451810820    -4.332549671748
C      2.173569842765    -0.173381429188    -4.473447839086
C      2.649787983531    -0.801776502476    -3.353528272950
C      2.062353728391    -0.534829444711    -2.097343446370
H     -0.243467434599     1.650559519174    -2.987954081950
H      0.727587798321     1.214585279762    -5.196142890435
H      2.611094067293    -0.366763353486    -5.449287890693
H      3.461902002514    -1.499872442382    -3.396593343033
O      2.603905232955    -1.196016825863    -1.104643722163
H      2.064642549949    -1.438916077464    -0.211816103187

