# STO-3G

title

0 1
C      1.296129368224     2.752775035956    -1.353120931463
C      2.567291890725     3.187665107279    -1.790374515090
C      2.677012038358     4.059522702741    -2.895238892365
C      1.521904337179     4.505522142329    -3.564772623071
C      0.255418383031     4.072600320642    -3.125658265297
C      0.138629356188     3.197669934060    -2.025181553748
H     -1.022687584109     0.620395489942     2.137523860565
H      3.473875324342     2.857074053308    -1.286198049897
H      3.660462324457     4.387556715260    -3.225873114497
H      1.605429010882     5.179653847843    -4.413865301112
H     -0.645244914372     4.410443253127    -3.634602864998
H     -0.847971222060     2.869160063013    -1.706999753914
C      2.037353793018     2.825477976941     1.807548568711
H      2.034634817254     2.195701326652     2.689592112819
H      2.995433326745     3.097814562216     1.373569858908
C      0.870817790262     3.444254787450     1.372697441853
H      0.902370425736     4.141323547125     0.551375780143
C     -0.413449846140     3.433236538120     2.095599778632
O     -1.441296491469     3.805000096738     1.470113276155
O     -0.412900445025     3.345310450573     3.497384505923
C     -1.703919522368     3.224256559613     4.108868257370
H     -1.580351541136     3.130719231382     5.208579092741
H     -2.329004237709     4.121780717776     3.900998585606
H     -2.226409899844     2.311048979202     3.742095603619
Pd     1.290102681899     1.449457427696     0.176543102147
C      0.833152390968    -0.414760547893     2.438756927269
O      0.246752782226     0.601637334170     2.997017116499
O      1.712115331875    -0.284062910686     1.495353678763
C      0.215028534407    -1.808031617911     2.758974140820
H      0.054197646470    -1.859922192026     3.844626660224
C      1.074563807547    -2.974406193070     2.331611081159
H      0.597644084988    -3.923451172318     2.653597078858
H      1.159874384481    -2.977424445805     1.225502917561
H      2.083252796488    -2.896971721365     2.785874148416
N     -1.088215735905    -1.995646781110     2.108027944296
C     -1.852470607641    -1.130332554793     1.565379502508
O     -1.684273400305     0.259074219109     1.441532628951
C     -3.086015429216    -1.637941782294     0.958435276869
H     -2.800169335641    -2.353754400462     0.169367154854
H     -3.658535054198    -2.149544531793     1.750090776023
H     -3.669554877763    -0.801381182785     0.533508992623
N      0.733688324136     0.009050975877    -1.224519067017
C      1.751490305049    -0.685943572452    -1.820261481453
C      1.483802954973    -1.528000885517    -2.879893101808
C      0.195330627878    -1.675650687848    -3.345019845162
C     -0.805698369010    -0.982431633418    -2.716440308503
C     -0.491671786972    -0.145302044556    -1.624782701515
H      2.768363370634    -0.561934707231    -1.466589844690
H      2.291250135358    -2.065138424285    -3.349563043306
H     -0.022413332410    -2.330365522086    -4.184651604459
H     -1.829556728959    -1.058118038588    -3.023164307090
O     -1.543229947906     0.447112822141    -1.080773523178
H     -1.532711489920     0.617835937031    -0.068743391611

