# STO-3G

title

0 1
C      1.392762309545     3.324049862670    -0.722213957977
C      2.576516970148     3.139832741384    -1.468982002085
C      3.073411341643     4.182057130662    -2.279240512953
C      2.388994043760     5.410552279752    -2.358447300057
C      1.202906616942     5.593278246202    -1.622146852742
C      0.705784881885     4.556383806256    -0.803905930122
H     -1.730185104440     0.095243090517     0.837504106522
H      3.107350640327     2.189866333607    -1.437080740122
H      3.987232334984     4.028061459743    -2.849812701727
H      2.772963386233     6.211297770373    -2.986167941247
H      0.665006906057     6.537667312923    -1.679496386219
H     -0.213825214023     4.720559711381    -0.243542265579
C      2.042424337756     2.221269160655     2.076281312669
H      2.135357059968     1.240386589645     2.534025833483
H      2.916491921993     2.591580744921     1.550596628164
C      0.943633580920     3.052915119745     2.304292632794
H      0.958953368852     4.061657144001     1.919567484460
C     -0.137648145799     2.764471154019     3.264297130623
O     -1.093637267210     3.578459734095     3.349414903971
O     -0.046740659164     1.645378493276     4.111759621939
C     -1.197097346882     1.386871458639     4.928376213571
H     -1.014481496070     0.482015858838     5.546740439387
H     -1.397898734053     2.241361949492     5.613958463377
H     -2.094719936944     1.199777402659     4.295286202489
Pd     0.631774483805     1.847876940580     0.397035165867
C      0.287982231706    -0.845369662469     1.654378154035
O      1.509359937695    -0.999841588034     1.315568367175
O     -0.324691427450     0.323149151342     1.558978527982
C     -0.657401288681    -2.015783488901     2.023180467886
H     -1.362039580642    -1.638961970763     2.781684059466
C      0.070362434840    -3.221002224199     2.563437351028
H     -0.666810589564    -4.000938868581     2.844924480473
H      0.733571095734    -3.630337870943     1.773000916280
H      0.673246323342    -2.943450795888     3.451969630519
N     -1.374586264739    -2.463468201525     0.810847304684
C     -2.090256058248    -1.694304242134     0.067393341336
O     -2.350503628456    -0.349131697787     0.175199021454
C     -2.766755739722    -2.316188719955    -1.075202891440
H     -2.529549567273    -3.395402585562    -1.098809808763
H     -3.849562444464    -2.159903240679    -0.946016101308
H     -2.404133757613    -1.821428299455    -1.992172481854
N      0.211939177795     0.806208189501    -1.366171565794
C     -0.865583043539     1.156583804473    -2.133788227445
C     -1.019752098995     0.609179847169    -3.391997097049
C     -0.099048424593    -0.292717782135    -3.879566134651
C      0.956724661701    -0.642599768362    -3.078594060225
C      1.068123720498    -0.076396104037    -1.791544730185
H     -1.585591342163     1.874387079387    -1.758214874752
H     -1.866530716438     0.896276788597    -3.993085036378
H     -0.213316951326    -0.724147616052    -4.870348458344
H      1.695339536005    -1.354761704246    -3.387398329756
O      2.100677499917    -0.510015117954    -1.088070384015
H      1.981427304486    -0.551088009063    -0.060929953028

