# STO-3G

title

0 1
C      2.903732920225     0.326702511575     3.473770624804
C      2.630173275164     1.703326492837     3.636758721949
C      3.511158065587     2.514276561512     4.382735289380
C      4.663184338997     1.958194092860     4.972429418471
C      4.934965975227     0.586060777853     4.810429839655
C      4.060429090906    -0.229264397534     4.060556265926
H     -1.303120767016     0.914990877819    -0.110481940413
H      1.747216829824     2.151631582117     3.183719665818
H      3.294129013984     3.573918036815     4.503136283310
H      5.338450546149     2.584568198961     5.550850975446
H      5.823411919306     0.148084483958     5.261686414469
H      4.291731751225    -1.285668753422     3.932161711713
C      0.770463720932    -1.747830936945     4.062958882697
H      0.373854880252    -2.673024278997     3.650739945467
H      1.604160635105    -1.832963830814     4.750597680971
C      0.074876436142    -0.539408595669     3.927342521653
H      0.420940470820     0.328374875718     4.466370701602
C     -1.286802267031    -0.410205481941     3.374542609400
O     -1.892651169597    -1.437117545922     2.965654305527
O     -1.939046217189     0.826466171915     3.498095039214
C     -3.222486466881     0.917178670362     2.864245593633
H     -3.626508918774     1.943790834746     2.993670479273
H     -3.136907431457     0.719908175449     1.772009132211
H     -3.941264237968     0.196218700514     3.314660370469
Pd     1.697837452298    -0.776773360648     2.320139336983
C     -0.350767421115    -1.210555321664     0.339979848974
O     -0.255600100737     0.043412820554     0.554856817875
O      0.419885956059    -2.035083621405     1.033127258538
C     -1.349967595928    -1.858323967251    -0.659221456245
H     -1.751833836667    -2.726211470793    -0.115129861459
C     -0.615541584941    -2.399736367301    -1.871808473252
H     -1.320880437423    -2.979158157089    -2.504158878664
H     -0.225339383901    -1.550020133984    -2.468646101527
H      0.219457542630    -3.064749674473    -1.569691462998
N     -2.482542291056    -1.112148905844    -1.182193074936
C     -2.781547982368     0.134622303906    -1.164722990901
O     -2.142099491055     1.204398618913    -0.610406520543
C     -4.030597819474     0.485872150880    -1.850349884369
H     -3.929406017980     0.176894604993    -2.903915540121
H     -4.844597827184    -0.075013358267    -1.362591283569
H     -4.204516502791     1.574224428955    -1.777337565482
N      3.177717671875    -0.824987313398     0.783709018177
C      4.038283658242     0.224224121123     0.582531117480
C      5.135012311049     0.071877364676    -0.241162889546
C      5.371226119442    -1.124133722523    -0.880580778132
C      4.483100242647    -2.148647735441    -0.687898471416
C      3.367354779297    -1.952070061203     0.152038861892
H      3.863219128998     1.175669687701     1.069424910067
H      5.807443753426     0.902036317527    -0.385031234811
H      6.233011925560    -1.247607343304    -1.531273065248
H      4.596749678291    -3.097518268000    -1.173616937701
O      2.560599534168    -2.995254912102     0.224955396236
H      1.620287860705    -2.775890498858     0.594043591290

