# STO-3G

title

0 1
C      1.954601162426     3.074612779061    -0.768506631462
C      2.965840233222     2.478655775418    -1.552201608816
C      3.938689284299     3.281432837348    -2.184022662140
C      3.903148315787     4.682886206621    -2.048573515369
C      2.888762525969     5.280226653290    -1.276117643345
C      1.917873422533     4.481065992442    -0.635530500936
H      0.127475859587    -2.560803229657     0.545469504971
H      2.996165238314     1.398924745710    -1.689054220452
H      4.713965845592     2.810135933465    -2.784930787513
H      4.652838314380     5.299018133873    -2.539391594266
H      2.851501931298     6.362421322788    -1.166976198744
H      1.144412963454     4.964396181593    -0.039619403935
C      1.884999904835     1.306170896371     1.774419985984
H      1.458691949446     0.369364941272     2.117155402412
H      2.832256096866     1.223237871000     1.250287205291
C      1.380221490856     2.553015714234     2.139944045785
H      1.932161926588     3.437858369146     1.863564163769
C      0.277706833284     2.778813568411     3.090840405633
O     -0.153362395723     3.952249065571     3.234426576304
O     -0.276651295004     1.699752265681     3.800660744812
C     -1.393441550705     2.015141049762     4.644891677257
H     -1.743819870830     1.093402025483     5.157450623876
H     -1.104897030606     2.755631177300     5.425306710369
H     -2.239996559263     2.419711058355     4.044541595664
Pd     0.528422428341     1.963794047748     0.097490823087
C     -0.838231838402    -0.438459150433     1.154968274773
O      0.167808204290    -0.998215534633     0.518141230975
O     -1.052172182585     0.825605534123     1.080506005928
C     -1.774706528915    -1.318486835521     2.016051848146
H     -2.622950591170    -0.674977053584     2.269558139273
C     -1.103252484562    -1.748180194454     3.310955419133
H     -1.835393958689    -2.292371865363     3.942897238501
H     -0.256505263755    -2.428465240287     3.083558695051
H     -0.725686047533    -0.869096227434     3.868340352467
N     -2.313191142576    -2.525240113602     1.373715385217
C     -1.628775070339    -3.429949756691     0.766167143825
O     -0.290709069554    -3.483160582500     0.493054080694
C     -2.358443603598    -4.617725232168     0.309867167804
H     -3.428780338236    -4.512440471437     0.563427902346
H     -2.223464455412    -4.688133859805    -0.781402744138
H     -1.924364330696    -5.497060783554     0.814401943239
N     -0.220519585338     1.665661345396    -1.829716437331
C     -0.803356974953     2.699415308469    -2.512155830894
C     -1.082865840448     2.568305680816    -3.856566319163
C     -0.780914864175     1.400563568726    -4.522579019429
C     -0.203358568472     0.379487709663    -3.815058982968
C      0.060023011542     0.546933597979    -2.439322503242
H     -1.036593463770     3.623330508522    -1.995797239426
H     -1.537385323479     3.388600557260    -4.387393496648
H     -0.996615266306     1.291519700765    -5.582142100018
H      0.052549202068    -0.556589051969    -4.270591441505
O      0.619259285629    -0.494538072171    -1.863682623754
H      0.534729630743    -0.605613059795    -0.819918182025

