# STO-3G

title

0 1
C      1.193836085726     2.646090134537    -1.701414202284
C      2.305952772661     3.422961396596    -2.092150732758
C      2.225373455245     4.254412030278    -3.229828593063
C      1.036997962632     4.316499077282    -3.981991932375
C     -0.071350977178     3.539073909162    -3.594450566502
C      0.005018528149     2.703254109612    -2.460759877041
H     -2.353733234795    -0.440946045896     0.561427437341
H      3.235555124824     3.394404428708    -1.526608519657
H      3.087551255798     4.850164437710    -3.523139493421
H      0.975298513231     4.957737314357    -4.858027385370
H     -0.992572281901     3.573284192891    -4.172422178615
H     -0.857280956814     2.096151139148    -2.189953235485
C      1.426537659591     3.188210794367     1.164990453057
H      2.056272327161     2.881823954553     1.996542734436
H      1.860411019573     3.863773528295     0.439618571654
C      0.050613028506     2.957176464568     1.182935541730
H     -0.576998675195     3.387992748241     0.413987031865
C     -0.672667312222     2.501798076129     2.387433594649
O     -1.920006646749     2.662531085666     2.427787670385
O      0.065648195741     2.239218004241     3.557052308085
C     -0.695479855852     2.055408613792     4.759315234368
H     -0.004831648967     1.855908667151     5.605821580211
H     -1.287202102001     2.967605102619     4.997615007520
H     -1.381783059379     1.185821409209     4.669815314183
Pd     1.211430433373     1.394898556873    -0.132344774151
C     -0.153493686822    -0.620698310108     1.421771905032
O     -0.842492943861    -0.546232447047     0.299943189543
O      0.982075031089    -0.037264776186     1.541154698969
C     -0.808543497774    -1.311485599809     2.640877007723
H     -0.081329585593    -1.240937391805     3.455712263721
C     -1.098620632764    -2.776509172441     2.375854068839
H     -1.498756552880    -3.246380148705     3.298235477427
H     -1.861972255140    -2.861848493610     1.574012217677
H     -0.173860345565    -3.306041511347     2.067799124370
N     -2.054289438671    -0.687300907076     3.116766907575
C     -3.047403462232    -0.271074904162     2.406542933935
O     -3.218673927714    -0.245494990535     1.053843595366
C     -4.197782905072     0.231817008149     3.164562888498
H     -4.534493608606    -0.571291873042     3.840135008780
H     -3.853911018088     1.109163063689     3.736336489637
H     -5.002281585384     0.522994192185     2.466008238421
N      2.051607999980     0.001879219271    -1.461885689222
C      3.388403490542     0.123668583134    -1.730770210085
C      3.964215694521    -0.624200894758    -2.736395635508
C      3.202717063980    -1.500197074403    -3.478604177691
C      1.870724756153    -1.614352215045    -3.181844079845
C      1.319038155082    -0.836959664128    -2.141535748798
H      3.993050108591     0.814736591608    -1.155526895477
H      5.015938826227    -0.516759434560    -2.945171628249
H      3.648081105851    -2.088963828276    -4.276205674338
H      1.221854175288    -2.279142975326    -3.716776563733
O      0.038150677806    -1.032556826852    -1.936645763006
H     -0.347850362557    -0.720308023388    -1.005336017796

