# STO-3G

title

0 1
C      1.498842063927     2.767079138309    -1.157944847260
C      2.759865228139     3.396565407177    -1.066857533758
C      3.071170292250     4.480928390081    -1.914735383806
C      2.126203805128     4.946566200483    -2.849382746143
C      0.868486115972     4.318654191334    -2.936959838334
C      0.554967953573     3.228203285157    -2.098767818533
H     -1.806136572713    -0.187641907315     2.235140059326
H      3.499976805420     3.056291928676    -0.344392001922
H      4.044683079214     4.961223620894    -1.838157897440
H      2.363506015527     5.787468790158    -3.496692359744
H      0.129258830151     4.671914713905    -3.653277056751
H     -0.417697494569     2.747198264148    -2.185857570956
C      0.991071187567     1.900259896599     2.112307384180
H      0.376066913897     1.109733236039     2.519372796916
H      2.004657741398     1.957616070551     2.495359074323
C      0.434421912058     2.943981463884     1.392209920092
H      1.004047694157     3.834868191437     1.188893829019
C     -0.976694291073     3.002899446256     0.990463248892
O     -1.505550180122     4.131457645086     0.819045889053
O     -1.486121999307     1.869505747162     0.344479923942
C     -2.879444579015     1.912481274146     0.012414664116
H     -3.167744899127     0.954269918990    -0.473026891716
H     -3.497799592575     2.027674976154     0.931573880599
H     -3.097092990064     2.742531557837    -0.696943501272
Pd     1.192780241755     1.122401192911    -0.032436576059
C      0.205709574340    -1.209159163895     1.586525331573
O     -0.945491863513    -0.871448875160     1.046254563534
O      1.319345001065    -0.778484701401     1.119891028723
C      0.191798612299    -1.984893041792     2.926023313868
H      1.222284026066    -2.299020971158     3.118418293015
C     -0.695473510323    -3.211858883823     2.880965849242
H     -0.618028958763    -3.760062119144     3.842841057495
H     -1.750169855976    -2.898490832216     2.733532200205
H     -0.387664907644    -3.881603925574     2.052031499814
N     -0.233987960589    -1.172055025729     4.078720936398
C     -1.153039927864    -0.275022813226     4.120821217156
O     -1.956450208372     0.240245843272     3.135855336597
C     -1.405953245480     0.344216658696     5.426195055645
H     -0.730738979682    -0.096397915537     6.182315737251
H     -1.222175293662     1.425848614071     5.325031422946
H     -2.458962619732     0.152403633805     5.693483347728
N      1.152530567856     0.070348640056    -1.820063401755
C      2.204751323732     0.152186965821    -2.693141443260
C      2.108052880911    -0.410859969823    -3.948000154012
C      0.957051720620    -1.058112027667    -4.336114603341
C     -0.077210174310    -1.136665762324    -3.442176242537
C      0.056287476052    -0.557196189590    -2.160609701631
H      3.113364616213     0.664266468177    -2.398893565192
H      2.938756160090    -0.333376325440    -4.629904546559
H      0.872520736148    -1.498892997329    -5.325861664163
H     -0.997207005462    -1.631759833017    -3.681208965455
O     -1.002522651870    -0.711332243126    -1.402914626177
H     -0.950619704307    -0.625436147998    -0.336326015089

