# STO-3G

title

0 1
C      0.921279758696     2.635665620091    -1.071448832963
C      1.846896333080     3.666341910489    -0.798327128750
C      1.821352238702     4.858655565032    -1.553678148396
C      0.872243658633     5.031173504734    -2.578813665515
C     -0.053732927795     4.004170967714    -2.847629352267
C     -0.029091610389     2.808351194493    -2.100754269351
H     -1.827579461472    -1.312954904104     1.823243211349
H      2.583882517206     3.558416721295    -0.004419187248
H      2.538434888525     5.647302785971    -1.334586790219
H      0.852712215721     5.951038753439    -3.158503662334
H     -0.794891961675     4.126813094949    -3.635204475502
H     -0.750768745561     2.024354698065    -2.323970319464
C      0.752346719869     1.793379038720     2.038744134116
H      1.307343070960     2.721686758473     2.127643714664
H      1.133782511650     0.943198471136     2.593654409235
C     -0.526706202485     1.759879850037     1.485870852855
H     -1.123329686683     0.860233017048     1.544574505662
C     -1.267354462903     2.956871988482     1.046426024923
O     -2.384945199434     2.812296155478     0.487279562339
O     -0.691422363101     4.228915470226     1.218613287110
C     -1.405269777484     5.322635725194     0.626431634610
H     -0.853465237780     6.267938656800     0.815443507455
H     -1.488830813424     5.186627820842    -0.475835171174
H     -2.423843111625     5.416512293089     1.066704816825
Pd     1.061983775456     0.926972517506    -0.041138816577
C      0.479106436660    -1.581054493993     1.481326844159
O     -0.640529052618    -1.526104389533     0.787968732399
O      1.509356442423    -0.902915065272     1.134037988148
C      0.484664518887    -2.322816305052     2.837943348808
H      1.528359464811    -2.372044000762     3.161670404611
C     -0.068258851976    -3.731401591882     2.745713009646
H      0.010067954961    -4.224100454605     3.736996151145
H     -1.137912368025    -3.693731582768     2.451063725567
H      0.500492121902    -4.321101882377     1.997953046618
N     -0.262523234926    -1.601321816031     3.888009975986
C     -1.430464259862    -1.074376860303     3.765957299323
O     -2.252250732941    -0.976065123695     2.677618399707
C     -1.983751645973    -0.474186558341     4.983620785897
H     -2.053391657187    -1.269467775496     5.744488839193
H     -1.286893726797     0.313351441019     5.313461317918
H     -2.981792976301    -0.050243558869     4.770842255269
N      1.445916159614    -0.015289896787    -1.856715798567
C      2.496178575848     0.398557313880    -2.632607921391
C      2.663153345916    -0.114182127523    -3.901561506152
C      1.778341417764    -1.042641356712    -4.401841040501
C      0.740234306683    -1.445693819567    -3.605021884789
C      0.601754004490    -0.907118750319    -2.306866116657
H      3.194160865502     1.133941424958    -2.249561395429
H      3.488814944075     0.223169820882    -4.506301412448
H      1.900781985391    -1.446003906534    -5.403554976624
H      0.016757604197    -2.164602568743    -3.935385968802
O     -0.434290667507    -1.370398694153    -1.651926576493
H     -0.528214547541    -1.310554016748    -0.590350945654

