# STO-3G

title

0 1
C      1.213113892650     2.912588449127    -1.446423383627
C      2.443896151406     3.193571366068    -2.086696727204
C      2.509397161695     4.104827316393    -3.162280742262
C      1.343961609705     4.750155184058    -3.618966477630
C      0.113882556100     4.479262606301    -2.988981326263
C      0.049208817550     3.568129376055    -1.913047359567
H     -1.526156696840     0.549397031406     0.025080708359
H      3.359951386984     2.708520530029    -1.752427166979
H      3.466536733522     4.308660443116    -3.638734089386
H      1.393531640575     5.453639653974    -4.446904190317
H     -0.793266868993     4.977566383128    -3.327606098215
H     -0.911874942623     3.378098087811    -1.438216325111
C      1.857865769799     3.047616133328     1.562233149322
H      2.261463847651     2.419761296973     2.348801151691
H      2.548571709578     3.658725951554     0.989636697581
C      0.480182883080     3.246776924576     1.432912476466
H      0.121863772915     3.967632364495     0.712094488240
C     -0.539451368896     2.796133771859     2.399923594174
O     -1.707012039811     3.256738044081     2.277963271693
O     -0.129948424205     2.178083849731     3.596571642053
C     -1.179700840600     1.851541690801     4.518684138765
H     -0.744859853338     1.352821339693     5.410789850047
H     -1.711017185582     2.769786401831     4.856259933620
H     -1.909635107037     1.150659761723     4.053143970768
Pd     1.219649078933     1.567473835539     0.061728805987
C      0.904342411976    -0.955356095248     1.660459594988
O      1.059752346982    -1.777154680371     0.709637442887
O      1.445854968129     0.252765293261     1.707466294456
C     -0.025823373439    -1.307893331560     2.871680860738
H      0.122754470441    -0.527032903417     3.627548636947
C      0.308844182820    -2.648079393544     3.483194104482
H     -0.332197717549    -2.821276473226     4.372007791489
H      0.106710166777    -3.443746071535     2.736428121383
H      1.375571845576    -2.679458188312     3.784390348090
N     -1.451476614399    -1.372175828009     2.509544819046
C     -1.995973234075    -0.623310738807     1.637966865322
O     -1.371040285869     0.439301206755     0.993499716016
C     -3.426051466847    -0.835834125532     1.372201684603
H     -3.538662710548    -1.857646829283     0.973286452110
H     -3.957411564714    -0.738013034242     2.333348006701
H     -3.782845353378    -0.082165327817     0.649618948195
N      1.055979804852     0.065934756027    -1.408394855838
C      2.152528033016    -0.713672109352    -1.665885105594
C      2.121745582962    -1.623621988189    -2.706910059383
C      0.970733304052    -1.798678869570    -3.444295416741
C     -0.125997412654    -1.033226502173    -3.133624394202
C     -0.020047273925    -0.101298020023    -2.072905660633
H      3.053794112359    -0.588466013968    -1.077324390304
H      2.990606060146    -2.227932141218    -2.906437389149
H      0.928171145605    -2.538972001857    -4.238664213451
H     -1.058846494893    -1.171838584041    -3.637124135592
O     -1.144606642379     0.592984504166    -1.716761905830
H     -1.759256993616     0.782743757864    -2.447010481964

