# STO-3G

title

0 1
C      0.451435890401     2.848994687900     0.149475423232
C      1.667612733212     3.557701385081     0.043671473854
C      1.655504025177     4.963943525226    -0.065116976921
C      0.434246756875     5.665464341696    -0.072221216439
C     -0.777016352074     4.955076808531     0.029795976394
C     -0.773648145638     3.548044530212     0.141578690040
H     -0.953939118911    -1.183196346278    -0.626503782504
H      2.619429120062     3.028438853105     0.050912189640
H      2.597959728594     5.502775534804    -0.141700766084
H      0.426926141151     6.749720268215    -0.155075523715
H     -1.725029256966     5.489192389852     0.025739073444
H     -1.719879651020     3.016159730272     0.212887299264
C     -0.656533181293     0.749906534430     2.152127892674
H     -1.343979841084     1.587176789030     2.209074884566
H     -1.114763722072    -0.227313072787     2.034575193695
C      0.689658990303     0.870419791842     2.505655108510
H      1.300788388047    -0.021804482105     2.568748503700
C      1.292325509962     2.094443585153     3.062545691269
O      2.541718175125     2.144213848710     3.202818670358
O      0.477281593733     3.208087392576     3.332517549293
C      1.160573846501     4.402893951932     3.734679831498
H      0.417224294363     5.209883724641     3.909316935633
H      1.727034582635     4.237224847653     4.678984988917
H      1.858669336429     4.744985100831     2.937497722596
Pd     0.475522018653     0.854841818456     0.218736484018
C      0.316040072006    -2.218340360635     1.220669971447
O      1.125119172446    -2.187211076351     2.167831110369
O      0.435189155089    -1.393626669660     0.137242536189
C     -0.931399419700    -3.149276342687     1.230021849607
H     -0.891259985158    -3.665314008335     2.194214264507
C     -0.871232007202    -4.193788542884     0.129847650722
H     -1.731585636797    -4.887548329354     0.232269345719
H     -0.928279276401    -3.700068724043    -0.861938124265
H      0.071715618851    -4.774564250891     0.200784737979
N     -2.243549175595    -2.484146653500     1.154089196704
C     -2.637309682690    -1.614978069692     0.295216971425
O     -1.944290684908    -0.995019904371    -0.713085734737
C     -4.042687577007    -1.208577275011     0.390588722217
H     -4.206353485597    -0.789520200138     1.397421059968
H     -4.264397781274    -0.461162822216    -0.390644755836
H     -4.664090831201    -2.110213718611     0.249178281203
N      1.144048985654     0.794469143895    -1.799397053487
C      0.800710646554     1.761247782123    -2.710052092577
C      1.463653358982     1.843674123102    -3.917859584618
C      2.464209422138     0.951315686136    -4.231114778141
C      2.768052583219    -0.027322827533    -3.323279618101
C      2.061376590072    -0.088227595125    -2.104159063732
H      0.010759231305     2.467403837222    -2.485759838339
H      1.191596861338     2.615549382447    -4.618979276719
H      2.989398482031     1.013432420494    -5.180554574420
H      3.518776365390    -0.768204907303    -3.514069723592
O      2.400525984368    -1.095992306561    -1.329079128886
H      1.696565159081    -1.295025332778    -0.583586236430

