# STO-3G

title

0 1
C      0.627738491306     2.970280541993    -0.234405381849
C      1.939791064410     3.252794068908     0.202137702770
C      2.359766493944     4.589563026219     0.360362229739
C      1.477658705020     5.651215444184     0.078512527635
C      0.169162681859     5.369467709470    -0.357376124831
C     -0.259117851914     4.033215086085    -0.511641375656
H      0.174813307827    -2.368191077054     1.725067513402
H      2.634182783575     2.443763301332     0.422031446883
H      3.372696212872     4.794449290735     0.701899902111
H      1.805377343467     6.681176403056     0.198436439383
H     -0.521577743414     6.182130724440    -0.573318719585
H     -1.277989482192     3.837655809939    -0.841244885748
C     -1.758929003972     1.082667735975     0.863570011758
H     -2.296432032963     2.022672795057     0.790311620111
H     -2.257363383713     0.204283963192     0.467629003977
C     -0.636571195047     0.948183963600     1.679623393737
H     -0.205111205104    -0.027929278977     1.855284891060
C     -0.125315863054     2.011064979405     2.564555692209
O      0.928469236157     1.804598405465     3.219803683596
O     -0.807332753284     3.239206396304     2.637785209394
C     -0.160457152972     4.267737023960     3.399497609247
H     -0.780779903726     5.188880941719     3.375792434879
H     -0.035166444768     3.956203935029     4.461286264306
H      0.835460763031     4.511565681165     2.964512408844
Pd     0.004593022778     1.100512607891    -0.575687266436
C     -0.559281800318    -1.834220099630    -0.450964954646
O      0.563766943743    -1.845365142441     0.244193256954
O     -0.870341017388    -0.843639603799    -1.198988684741
C     -1.548781751741    -2.977705584212    -0.131777415092
H     -0.950079330704    -3.886239588543     0.039360908294
C     -2.547109076797    -3.229530382494    -1.233837893962
H     -3.186733942141    -4.093490573623    -0.958443917082
H     -3.194524366466    -2.336822209951    -1.354539108573
H     -2.024725819630    -3.447978361091    -2.187647334601
N     -2.331133604996    -2.619391715408     1.075783808821
C     -1.759033201877    -2.437278730528     2.216720036314
O     -0.430562480485    -2.425753109416     2.533763135976
C     -2.629247560187    -2.188716308713     3.369624695801
H     -2.434192999501    -2.981491607916     4.110550176522
H     -2.364097430900    -1.200900104106     3.779938015575
H     -3.687752356754    -2.208316892156     3.050790569049
N      1.542260864615     0.950025306168    -1.969300105643
C      1.623622249199     1.844296935700    -3.003624761502
C      2.723928919167     1.842790003076    -3.834483348196
C      3.749824595641     0.947068352796    -3.633503412064
C      3.642602388796     0.058405937148    -2.597221020314
C      2.498613665892     0.080171239364    -1.769247083180
H      0.823714706560     2.557500759828    -3.165508420327
H      2.781180590113     2.554975391953    -4.641160542351
H      4.622488202492     0.944678303381    -4.281245969148
H      4.406494125225    -0.663955142312    -2.387382100472
O      2.522369419445    -0.815636231178    -0.813689854513
H      1.646697517365    -1.153676587518    -0.299319684851

