# STO-3G

title

0 1
C      1.651250785050     2.970789700863    -1.606569355218
C      2.957769773262     3.478548239166    -1.783938891801
C      3.206184296138     4.478177229184    -2.749940949498
C      2.155384963635     4.978129927429    -3.541489817121
C      0.852651311462     4.470462196325    -3.367361204171
C      0.600552732124     3.468484002550    -2.407855243146
H     -2.361469046432    -0.577891386713     1.553864719130
H      3.788366830709     3.106012357066    -1.186563986909
H      4.216040142564     4.862817030027    -2.878727682327
H      2.346646928387     5.750309549700    -4.282912413907
H      0.032901634571     4.847288632389    -3.975970215899
H     -0.410575513848     3.079891452301    -2.296196490956
C      1.936631830798     2.748219066528     1.490961430623
H      2.080769927208     2.024915751128     2.287573220325
H      2.823503201328     3.227038399657     1.090783020032
C      0.670812235328     3.230706525323     1.161277600074
H      0.573190149143     4.039469714347     0.453595052711
C     -0.559567435857     2.936335331889     1.916451057924
O     -1.614398062937     3.544422722128     1.600229577861
O     -0.486363800720     2.136690682003     3.068823294356
C     -1.714644585655     1.970876836673     3.790016916656
H     -1.551369287088     1.269615638940     4.636699859055
H     -2.067315700773     2.943883314690     4.199092273546
H     -2.506072739423     1.542943174352     3.132857714667
Pd     1.326748211124     1.514387380895    -0.264699584749
C      0.034215905748    -0.510244749889     1.553671646360
O     -1.043443008220    -0.159166963600     0.899411087191
O      1.190097721110    -0.055090644765     1.226712738528
C     -0.035048886981    -1.502434511005     2.752104877887
H      0.820181956732    -1.221696616159     3.379148013615
C      0.211966397205    -2.919366063202     2.266701953365
H      0.306072349238    -3.600317710131     3.138621092352
H     -0.651515720017    -3.248290098451     1.651969138475
H      1.143426576160    -2.973618398150     1.665767215492
N     -1.203558395834    -1.570943454643     3.623117321266
C     -2.443038687229    -1.358627546235     3.363778690899
O     -3.046493589743    -0.886698529772     2.238289639561
C     -3.373339372300    -1.649359530630     4.460319450209
H     -3.270391621004    -2.718914701239     4.707805857722
H     -3.080355958915    -1.026795885785     5.320923979277
H     -4.406725803676    -1.420449655814     4.143312289565
N      1.109258101189     0.249292806789    -1.918668886388
C      2.179813350591     0.050413564524    -2.749579410464
C      2.001952780297    -0.557421895698    -3.974665363854
C      0.749911234750    -0.968063216463    -4.375746364767
C     -0.303052573567    -0.766312023769    -3.523877190381
C     -0.082355194929    -0.149475276429    -2.274039137628
H      3.166993269613     0.378181373528    -2.445528091132
H      2.849178626651    -0.702490747893    -4.624602974155
H      0.601414628778    -1.442088150363    -5.342401132219
H     -1.302547503642    -1.064884382232    -3.772150645282
O     -1.163364013854    -0.008753922288    -1.543922518187
H     -1.069126798445     0.084266300499    -0.493734156505

