# STO-3G

title

0 1
C      1.569940754177     2.616519398311    -0.351233314808
C      2.585678461336     2.385780542096    -1.303539839200
C      3.622268523903     3.326464168337    -1.474637748204
C      3.647524265132     4.505780297643    -0.704528704376
C      2.630245317789     4.740012718058     0.239643049175
C      1.591074965095     3.800902958513     0.416927217452
H      0.003250870328    -2.809547252872    -0.426801991572
H      2.572836404127     1.487314831687    -1.917725856781
H      4.403134869139     3.135847760217    -2.208155959665
H      4.449820197429     5.227845046437    -0.836092172042
H      2.645188405249     5.644050550102     0.844820112247
H      0.821509908356     3.999580842927     1.160403232708
C      1.397980803136    -0.019119567819     1.009305075083
H      2.413912851045     0.342261484449     0.892835752546
H      1.163632875456    -0.941334313165     0.485779884035
C      0.525283722113     0.509604441964     1.960782097658
H     -0.418483229497     0.016633904845     2.137978275333
C      0.887581707615     1.529380482761     2.960640840607
O      2.050594061437     2.010028660023     2.976553910677
O     -0.118480112517     2.028225340354     3.804159630338
C      0.294648409196     3.021465852011     4.753710380402
H     -0.579372610916     3.331925014957     5.366262668987
H      1.071341133892     2.613612502709     5.440184830444
H      0.695797127016     3.922847630503     4.236998535131
Pd     0.027308275733     1.358614438708    -0.156174257018
C     -1.633710116904    -1.122448536569    -0.138671541511
O     -0.759853453705    -1.524097517088    -1.043224744680
O     -1.781350360685     0.115182371579     0.152343932909
C     -2.289670631233    -2.252497200297     0.688016937049
H     -2.479513740215    -3.090745709514    -0.000753469546
C     -3.579938252670    -1.837644422846     1.349552930983
H     -4.016277635545    -2.708559731458     1.880976780931
H     -3.372217854236    -1.040048106288     2.092533747090
H     -4.302233704414    -1.468347656381     0.593135547752
N     -1.365202685376    -2.653230600393     1.776281360116
C     -0.205280985151    -3.157565051441     1.524925811797
O      0.430176152203    -3.330472168974     0.328017224130
C      0.583606093698    -3.617912524075     2.671282334608
H      0.008275910481    -3.458756084702     3.601415364849
H      0.788120928070    -4.690769991145     2.523340321945
H      1.523409055067    -3.040937413609     2.693164768502
N     -0.583821698611     2.020228288290    -2.034968251782
C     -0.862933301643     3.345903191270    -2.236180814206
C     -1.088218275119     3.819595171538    -3.511347671069
C     -1.032011684543     2.969332744244    -4.592580751424
C     -0.756230926436     1.647201482260    -4.365876163262
C     -0.538398584035     1.192312520477    -3.046723672957
H     -0.903815224946     4.023587116988    -1.391436295536
H     -1.301040302767     4.865564375092    -3.659232127572
H     -1.202685503005     3.337883702361    -5.600618784856
H     -0.698104604033     0.934488303717    -5.164456669862
O     -0.276506611778    -0.088683213253    -2.965038912695
H     -0.408430531113    -0.654793050111    -2.063313964712

