# STO-3G

title

0 1
C      1.310187863787     3.059237611586    -0.811290739401
C      2.565983868678     3.359798637412    -1.377933427628
C      2.775876622526     4.609069069379    -2.000645461225
C      1.735025939476     5.554900551170    -2.066568606735
C      0.479563745946     5.249339410483    -1.505831120726
C      0.263880691343     4.005703701999    -0.875994796378
H     -0.867941943035    -0.521732170972    -0.011149436164
H      3.376142555020     2.633146296908    -1.349869979005
H      3.748585352924     4.835550612777    -2.432883695037
H      1.900141377362     6.516473984249    -2.546840204776
H     -0.330436193521     5.974590657956    -1.551640088008
H     -0.713112262474     3.785144368675    -0.448607712541
C      2.043281612700     1.709094467103     1.888792910967
H      2.229669402226     0.738297361961     2.343545498912
H      2.900635732162     2.232346417571     1.476340028066
C      0.813040659866     2.359552680089     2.006548482089
H      0.713547630609     3.365525975895     1.631148520363
C     -0.289240162372     1.939548953878     2.890801703400
O     -1.375430166647     2.573574576770     2.826609442833
O     -0.045333653766     1.001480575836     3.905945553595
C     -1.115004115761     0.785621270471     4.837377268992
H     -0.811094289820     0.007127390933     5.569290668739
H     -1.348513153848     1.719789624464     5.395238856423
H     -2.032137383103     0.426453797935     4.318999492455
Pd     0.966728582281     1.257635684411    -0.017757923466
C      0.514974538165    -1.351036463781     1.877797641912
O      1.519712935876    -1.376526182498     2.615151886305
O      0.559039830010    -0.830435059829     0.618425081485
C     -0.870880582431    -1.900428397788     2.331169120539
H     -0.752954331809    -2.099123968087     3.401486131254
C     -1.195314818902    -3.214701328724     1.644141955014
H     -2.131626493444    -3.632908238522     2.068896366568
H     -1.343925264051    -3.039265259223     0.558743352230
H     -0.372558974063    -3.944069604910     1.794753632522
N     -2.043574518184    -1.027044102176     2.184038100842
C     -2.416592634680    -0.329370845996     1.175175761212
O     -1.801058776185    -0.134112420507    -0.038112464008
C     -3.694460635998     0.374949143655     1.315639918761
H     -3.599253921602     1.074161214050     2.164196320465
H     -3.914670988074     0.924996352951     0.385023345068
H     -4.477051206448    -0.375678011434     1.520116640915
N      0.928979088678     0.438477738372    -1.978487020691
C      0.380951331792     1.110240136875    -3.040009432866
C      0.642981596614     0.694827980849    -4.330393674574
C      1.438297237558    -0.405173888550    -4.565137635020
C      1.947425297147    -1.080896658682    -3.487685842850
C      1.647252493899    -0.633189119882    -2.184788499997
H     -0.249660132513     1.974446140695    -2.870173110688
H      0.216026897835     1.237871560474    -5.157456791080
H      1.645340043699    -0.736457938071    -5.579261021954
H      2.551073329780    -1.959414484648    -3.598540707356
O      2.143114444316    -1.379371062490    -1.216619202756
H      1.655047255358    -1.214617090835    -0.312777089835

