# STO-3G

title

0 1
C      1.829353695953     2.953431592849    -0.666007382833
C      2.942617161277     2.608268567133    -1.462238872369
C      3.574440052270     3.584902064822    -2.260071934809
C      3.095031405380     4.909221541429    -2.277409562795
C      1.978491709488     5.253709912873    -1.491991519343
C      1.347347425255     4.281774472904    -0.686356055877
H     -1.750383866171     0.297551808074     0.960005668626
H      3.313829923050     1.584853380585    -1.477785263717
H      4.432615684303     3.306417750822    -2.868710773302
H      3.582847494082     5.659415638839    -2.895420793554
H      1.598572680440     6.273512628631    -1.501946884154
H      0.484214902723     4.571552773162    -0.088565310869
C      2.430108065736     1.671164693321     2.032058069752
H      2.415100362177     0.663817198160     2.440810194105
H      3.311623109583     1.948241228266     1.464117273574
C      1.471032461278     2.626797365340     2.379190866270
H      1.593726384572     3.643476658496     2.038523350684
C      0.432844191862     2.431555539537     3.409675441203
O      0.467695344006     1.418252737276     4.157899993122
O     -0.525162702033     3.443199025235     3.588057705917
C     -1.553402635636     3.164217391416     4.548989134187
H     -2.256746565937     4.023236414220     4.597744082354
H     -2.132266076349     2.258248579385     4.255649893804
H     -1.118702899577     3.012687965375     5.563283101536
Pd     0.877438921305     1.584575291566     0.442733958916
C      0.095125739283    -1.044014262812     1.626844372715
O      1.251806104473    -1.405200277100     1.223824722296
O     -0.294235047201     0.220158930521     1.597272700301
C     -1.038937486540    -2.034023928489     1.991207116126
H     -1.630368007582    -1.572234626213     2.797909447780
C     -0.532467729632    -3.381136967126     2.441370709978
H     -1.392812902135    -4.023428268261     2.720775296697
H      0.012852566355    -3.863981033885     1.603912428222
H      0.143431225934    -3.268099162140     3.313503770675
N     -1.870310465317    -2.274370569527     0.790801925932
C     -2.463270754538    -1.347094023911     0.123168641691
O     -2.473400413056     0.014536177265     0.312129929315
C     -3.269950500982    -1.795216141305    -1.016131954999
H     -4.034137487133    -2.490798253557    -0.631158324680
H     -3.739121916658    -0.921019091624    -1.498453874548
H     -2.596618459289    -2.312950178103    -1.721012356684
N      0.195767380867     0.708723569785    -1.328955829922
C     -0.836278790115     1.275657890230    -2.026372929823
C     -1.156084078131     0.805510048184    -3.284499917894
C     -0.446233088518    -0.235217532027    -3.842786770060
C      0.567886312751    -0.797429421252    -3.112139078483
C      0.849508128446    -0.303016642488    -1.821376625487
H     -1.389485053037     2.101916006085    -1.595255201800
H     -1.965480680331     1.261668829628    -3.829713089939
H     -0.691104123660    -0.607613959494    -4.833829865156
H      1.143991091982    -1.623691068007    -3.477572261668
O      1.817356231874    -0.943325081876    -1.187755554318
H      1.740502460640    -1.002135179945    -0.156647960117

