# STO-3G

title

0 1
C      0.578691966132     3.107677264933    -0.365804628172
C      1.887257280653     3.444049266598     0.046132243909
C      2.291651288646     4.793656478634     0.100281724106
C      1.396838556802     5.820023150403    -0.261252718536
C      0.092622794548     5.488211105767    -0.674238214655
C     -0.318250532903     4.138559401923    -0.724186609175
H     -1.977322777989    -0.935785053741     2.736303618857
H      2.592729543987     2.663498233727     0.326693757153
H      3.302650077339     5.036390216624     0.422688440134
H      1.711411472560     6.860385504674    -0.221547514010
H     -0.607749162710     6.273191371551    -0.953360538645
H     -1.334341043976     3.906661939928    -1.039393313678
C     -1.783841603935     1.339474838530     0.895820392969
H     -2.283239228378     2.298532114353     0.803250417230
H     -2.302935928801     0.459734874861     0.533314426662
C     -0.640659884918     1.189511463561     1.684642525829
H     -0.226487340722     0.202047738605     1.849480800909
C     -0.065765639553     2.256548460483     2.522570860730
O      0.996381045187     2.025703379977     3.156811572515
O     -0.689291813168     3.516682648201     2.567367063533
C      0.018501723917     4.539538843795     3.280723219593
H     -0.561036521472     5.486207595953     3.237192801477
H      0.151548957243     4.258183363411     4.349882798603
H      1.014648880145     4.723974133120     2.818263132830
Pd    -0.027382463141     1.206046771839    -0.534101046791
C     -0.469879366061    -1.776471077986    -0.239205955708
O      0.602526371112    -1.730602700861     0.499554804544
O     -0.867696895713    -0.772376875414    -0.943406702205
C     -1.235168490802    -3.128489926903    -0.243509212062
H     -0.531484645406    -3.871360267017    -0.642517332320
C     -2.473338120805    -3.120379078893    -1.116795311378
H     -2.929373850007    -4.132299634346    -1.121933749213
H     -3.207256571806    -2.399635462266    -0.702480223716
H     -2.212348619669    -2.833558989459    -2.156060883185
N     -1.641536344516    -3.609591519646     1.080824472113
C     -1.983623334494    -2.851389688817     2.035826815571
O     -2.095399938271    -1.463138876556     1.922640213657
C     -2.360055881442    -3.485350784050     3.308124771773
H     -1.474950376711    -4.029387128473     3.679480338505
H     -2.681877372857    -2.716706928857     4.029010692160
H     -3.181688304947    -4.193251728397     3.101955045915
N      1.554947634604     0.926852803625    -1.850232895591
C      1.664050255128     1.666638827445    -2.996648110255
C      2.817797457452     1.607694670618    -3.749229542137
C      3.868832394878     0.809399790060    -3.356744097671
C      3.735026883819     0.074778438158    -2.208641713105
C      2.537847510489     0.149427864024    -1.461898078420
H      0.844263514599     2.303531037307    -3.308177837083
H      2.896588489457     2.198574627736    -4.646872930605
H      4.782582534055     0.763664773740    -3.943294857971
H      4.516822218288    -0.563884082635    -1.848124428922
O      2.530263759403    -0.584626450607    -0.382764145519
H      1.601847757093    -1.003073816844     0.087234226199

