# STO-3G

title

0 1
C      0.811521147113     2.829625447747    -0.412875363265
C      1.892987220902     3.179155780716     0.421752443429
C      2.712752641186     4.279442059236     0.091367939016
C      2.464543226234     5.031729596482    -1.072893250393
C      1.391498077374     4.676516377363    -1.912339254780
C      0.567835309751     3.578267930024    -1.586826554589
H     -0.658855752163    -0.661349914084     2.544022684019
H      2.117309403136     2.598294307146     1.313405787254
H      3.544756743467     4.539446669191     0.742749878280
H      3.099608578111     5.878316465051    -1.322613212126
H      1.192798660878     5.248244381435    -2.816505533923
H     -0.261493907828     3.325799923248    -2.246738449316
C     -1.195446391306     2.319457883547     1.720394441586
H     -0.514709283816     3.122195577831     1.982520107374
H     -1.247813605874     1.459096938414     2.378479066973
C     -2.155647616633     2.443173650619     0.717011303914
H     -2.882248056549     1.652160774020     0.601393379091
C     -2.423520745879     3.684133098669    -0.028554039222
O     -3.174371098000     3.630802667163    -1.037027161910
O     -1.738004064120     4.862712690494     0.312524185160
C     -1.983885798470     6.000788928260    -0.524492365182
H     -1.385651312522     6.861873896365    -0.155988347750
H     -1.677789661096     5.793134934188    -1.574527565081
H     -3.059967742588     6.286068360345    -0.499491646508
Pd    -0.384421550279     1.251017779123    -0.107850782143
C     -1.964586054642    -1.120254328076     0.901484000406
O     -2.160756913360    -0.486404797239     2.016850390524
O     -1.666600959371    -0.533153043011    -0.217331171798
C     -1.815422941400    -2.668791073362     0.947715504961
H     -1.787529408064    -3.044806751723    -0.081430284900
C     -2.944897912767    -3.349689976663     1.687516275161
H     -2.810401253342    -4.450329483040     1.639392696562
H     -2.925927706094    -3.034637341691     2.751450277296
H     -3.920714357440    -3.078642508692     1.235520295312
N     -0.570168263068    -3.102362217468     1.593986010184
C      0.295218254504    -2.405566450226     2.216326210012
O      0.289609103596    -1.024988141367     2.503944655647
C      1.487656611365    -3.108580640520     2.695812222003
H      1.151680038692    -3.902972280369     3.383626691063
H      1.988082339213    -3.550130914291     1.817767015469
H      2.159625654472    -2.400958030755     3.213587736534
N      1.162678988973     0.104942133881    -0.935618906145
C      1.166005482761    -0.043670171780    -2.296581267614
C      2.260789519780    -0.597969611288    -2.927199835102
C      3.354047247202    -1.007032418521    -2.195630108193
C      3.314675758274    -0.863590650467    -0.833331136536
C      2.169131078183    -0.306216375793    -0.226315322667
H      0.313748165118     0.289467789904    -2.877392652430
H      2.259508198320    -0.703109926598    -3.999647708812
H      4.223125827046    -1.437464271211    -2.686013178506
H      4.129034992192    -1.166511392840    -0.206505319951
O      2.244102220385    -0.236694153331     1.093759077108
H      1.387751292461    -0.322462195129     1.649469229942

