# STO-3G

title

0 1
C      1.868024618198     2.791244710101    -0.819087699944
C      3.255126788528     2.637011121941    -1.028823582165
C      4.013291707251     3.697359031011    -1.567883753551
C      3.391710536840     4.913306957005    -1.912564604136
C      2.006027451792     5.065489307290    -1.714342201719
C      1.244274545315     4.010432807067    -1.167971542369
H     -1.932928825079    -0.118305664345     1.049061469317
H      3.747722900718     1.695222479258    -0.791626160337
H      5.082402154473     3.566513851855    -1.723587202377
H      3.978301773475     5.727945682446    -2.330743597464
H      1.517004481607     6.001058462111    -1.978865652051
H      0.174695407960     4.152795408537    -1.019910439121
C      1.448910414717     1.604122291510     2.007218852232
H      1.276013792264     0.672607979846     2.538732468920
H      2.485784889192     1.854765133113     1.808495049970
C      0.432214597249     2.533645349912     1.797773845587
H      0.683214692497     3.495617853408     1.381001748072
C     -0.919539224903     2.452205886318     2.379083246113
O     -1.107581754453     1.749649548180     3.407221299465
O     -1.854566010366     3.421778924179     1.978737946704
C     -3.160536700028     3.302803917354     2.559485120508
H     -3.810547827120     4.117983043643     2.176156819766
H     -3.626623622153     2.330935564289     2.280489494720
H     -3.113341880881     3.388101425781     3.668999361837
Pd     0.773185413737     1.268979091089    -0.110702931471
C      0.103299842694    -1.405821456747     1.122015060273
O      1.348985422513    -1.650831887877     0.951329430362
O     -0.465665114392    -0.333258355940     0.623630645366
C     -0.741874723703    -2.392464185305     1.964918737105
H     -0.005855166631    -2.978451851790     2.525389969676
C     -1.512504341316    -3.348910075943     1.071948705785
H     -2.021782306423    -4.110138326500     1.699141061611
H     -2.280942163681    -2.784046899712     0.504576731673
H     -0.826600220030    -3.861651988557     0.366158534233
N     -1.688858421713    -1.837182674638     2.932283884210
C     -2.522765855014    -0.875125691928     2.764983849674
O     -2.732893000333    -0.070468531209     1.671122673484
C     -3.426348462904    -0.610108370347     3.889202387629
H     -2.797644603734    -0.311990722384     4.745622093536
H     -4.119774729999     0.201696553921     3.617913389423
H     -3.975277167640    -1.540218145107     4.114287790408
N      1.005570571238     0.405284836168    -1.993078938373
C      0.413261348130     0.973572337868    -3.088460588844
C      0.767796415950     0.561482880684    -4.355959843390
C      1.716348423439    -0.421586875966    -4.531853976763
C      2.288382176486    -0.980392417399    -3.419286862318
C      1.895341374827    -0.541251630235    -2.136650753180
H     -0.328073653669     1.753298207499    -2.957396806947
H      0.300558786352     1.018596848407    -5.212755417234
H      2.002653982013    -0.747073718260    -5.528458813286
H      3.030225810301    -1.750855059819    -3.487906811836
O      2.511531831086    -1.142401182460    -1.146996371246
H      2.048512657520    -1.228027758998    -0.186299573883

