# STO-3G

title

0 1
C      1.405358876028     2.953036844556    -1.465471295910
C      2.682620184063     3.322916010220    -1.942059836742
C      2.802861050110     4.172278393930    -3.063659787947
C      1.652428563792     4.657378641306    -3.713479243454
C      0.378822871179     4.282019020531    -3.241919871755
C      0.251579496225     3.429765910444    -2.125480479992
H     -2.011438898245     0.279886388978     1.561820749652
H      3.586724424984     2.955531935235    -1.459756247555
H      3.791324856776     4.451887221147    -3.423418003472
H      1.745238711489     5.314498616219    -4.575215345614
H     -0.517296762699     4.645717104807    -3.741478362081
H     -0.735239088224     3.127426601825    -1.783410251508
C      2.251093218969     3.110481353390     1.500305031217
H      2.541872557215     2.489308810475     2.342239622225
H      3.043057997189     3.474084518471     0.854704486741
C      0.961986217786     3.634078189249     1.394096285562
H      0.736632990198     4.340888021994     0.608692341583
C     -0.069976171493     3.536493636463     2.443365859236
O     -1.124777517773     4.209569535338     2.298667097337
O      0.277947424561     2.994450688763     3.695607995530
C     -0.784629417650     2.930667528078     4.656966370164
H     -0.408981054118     2.463741029708     5.591769257153
H     -1.159809953421     3.950096713979     4.901576482545
H     -1.626349804621     2.310342230464     4.271099059304
Pd     1.240835590628     1.721885505486     0.106065865357
C      0.090850372284    -0.057800760954     2.138028424915
O     -0.854897315497     0.836272429312     2.082264920763
O      1.276514470478     0.176453923072     1.688712810219
C     -0.333898888141    -1.472925986654     2.646578944410
H     -0.874072526344    -1.315183357844     3.593456816599
C      0.833305331439    -2.396132430857     2.897124187302
H      0.464977830067    -3.350822602373     3.326603832829
H      1.337959297468    -2.611588654014     1.933151333326
H      1.551866854100    -1.929142086991     3.601306295567
N     -1.223198200549    -2.177273562319     1.707521666207
C     -2.169455586168    -1.670863359667     1.005470360636
O     -2.600442146504    -0.354975717898     0.919781536672
C     -2.937319781085    -2.615168852782     0.187455777673
H     -2.233240722739    -3.111926521980    -0.501159503009
H     -3.380803986747    -3.356435517960     0.873616501849
H     -3.727767155753    -2.077811925987    -0.365514247523
N      0.761621917935     0.187352840675    -1.241771606499
C      1.729981706519    -0.629597974210    -1.758560272278
C      1.373752004773    -1.709362921516    -2.542369596085
C      0.047744860786    -1.964162488911    -2.819805732866
C     -0.899983363073    -1.120767389035    -2.299171668349
C     -0.485734070850    -0.032003281647    -1.496903513691
H      2.773451955889    -0.433338069808    -1.541924060538
H      2.141097331258    -2.352509241116    -2.940688946207
H     -0.238009506973    -2.805740145026    -3.445222687844
H     -1.942779112750    -1.239594790721    -2.510791342866
O     -1.434101255747     0.787599793523    -1.036570645199
H     -2.114359222814     0.353064512156    -0.406382320541

