# STO-3G

title

0 1
C      0.872315840182     2.764295835698    -1.838942688112
C      1.644060905064     3.944037871582    -1.743036486506
C      1.723835070043     4.830412820384    -2.838617537487
C      1.034243673062     4.547807048393    -4.032914718708
C      0.269186783497     3.369102305393    -4.130866346507
C      0.191928941559     2.476666802932    -3.041571368988
H     -2.311648731651    -0.769810224315     0.811058572489
H      2.186362621358     4.183664542193    -0.829178552662
H      2.320198666741     5.736865383717    -2.753961154842
H      1.093367869918     5.233147544043    -4.875173566617
H     -0.261935967713     3.137408241081    -5.052026818962
H     -0.386255803186     1.559767656831    -3.143103130565
C     -1.240077722209     2.264230600134     0.266418960407
H     -1.770083557624     1.448821836870     0.749798206542
H     -1.612682780361     2.545556321188    -0.712941005462
C     -0.311672870880     3.061810108823     0.932474913848
H      0.063169954436     3.951032942221     0.450126645390
C      0.009515120336     2.944541423321     2.364578063419
O      0.946933301842     3.644158136321     2.829609249172
O     -0.742394789435     2.084157997951     3.178267091502
C     -0.288933900490     1.931660280611     4.529408705961
H     -0.944065224518     1.199577487092     5.051614281249
H      0.751066075384     1.535603531756     4.554255259651
H     -0.335030847453     2.900205123621     5.075792885950
Pd     0.822715483746     1.485319400768    -0.297408426681
C     -0.089541060760    -0.719579992262     1.469210717932
O     -0.793380484851    -0.999088036298     0.389712613247
O      0.855080868021     0.146402785656     1.447066491815
C     -0.508307886218    -1.362876929115     2.815224583693
H      0.268459723519    -1.091979997907     3.537571960676
C     -0.585049972014    -2.873318027138     2.727868713944
H     -0.803367156609    -3.291468990732     3.732508518122
H     -1.407040340314    -3.158244160215     2.038396245421
H      0.374021585475    -3.290716032625     2.358478698198
N     -1.787426672357    -0.893363509132     3.367544264952
C     -2.823459278482    -0.491357124287     2.722349643040
O     -3.067315879338    -0.406512190484     1.373737196331
C     -3.948788888377    -0.049190211030     3.551658867121
H     -4.240387007496    -0.894251453550     4.197175952028
H     -3.593280729469     0.798477138648     4.160210159813
H     -4.790527736481     0.259496648097     2.906566187957
N      2.021924018227     0.239196037010    -1.465328000444
C      3.291161952970     0.636312382135    -1.791082385007
C      4.013919994184    -0.064669995858    -2.733459953421
C      3.468703263836    -1.165865758078    -3.355380187014
C      2.199829000087    -1.546915720317    -3.007451125719
C      1.491235805794    -0.811034977040    -2.033273756248
H      3.724135141951     1.506515290341    -1.311513659075
H      5.009756863609     0.259291804324    -2.987872527046
H      4.031179756608    -1.719085904073    -4.102881300250
H      1.718161507069    -2.394283012391    -3.453561552151
O      0.285170777944    -1.265630750151    -1.789163193122
H     -0.206574315415    -1.031006012791    -0.869342476941

