# STO-3G

title

0 1
C     -0.022164369852     2.570205755440     0.115716855629
C     -0.296976214473     3.711881569201    -0.664367300891
C     -1.081528797183     4.756978385812    -0.131984914633
C     -1.580493531001     4.672435690739     1.181311836823
C     -1.296653529884     3.535453676787     1.962022158795
C     -0.519787568969     2.484926904871     1.433132873045
H     -2.125588791648     0.567349161376    -0.941420940151
H      0.074834530048     3.797873022251    -1.683999703867
H     -1.297614605922     5.630624868127    -0.743536116278
H     -2.181307998792     5.481348332803     1.590106649760
H     -1.682875650378     3.456697593375     2.975731725551
H     -0.315706567673     1.613282422693     2.051632361172
C      2.801500219827     2.208652133949    -1.087951041619
H      2.536055551421     3.238876310965    -1.302894671763
H      3.247336206194     1.636764078643    -1.893943492465
C      2.903352929095     1.752310813517     0.236788151640
H      3.308681186457     0.770567659260     0.443473077961
C      2.778295918058     2.618766202427     1.424444301708
O      2.721743523038     3.868965686962     1.283936678629
O      2.767775978654     2.021307299317     2.694641020143
C      2.544856686498     2.908932071802     3.799292196743
H      2.542074502085     2.326046594531     4.745549349128
H      3.352484156062     3.673130022800     3.863252799393
H      1.559452295459     3.420231972349     3.702664013239
Pd     0.977443362731     1.027042426452    -0.696210596261
C     -0.873789923029    -0.826576572785     0.604852184620
O      0.154205288352    -1.137787824720     1.294727048252
O     -0.793937311354    -0.096120275193    -0.490526742547
C     -2.282360259070    -1.247656554900     1.092151560633
H     -2.120802178012    -1.682285217103     2.083604959775
C     -2.889746055795    -2.314769828286     0.198887759591
H     -3.856655914691    -2.648865807291     0.629330126457
H     -3.076827905384    -1.890106552339    -0.809256551806
H     -2.207806380283    -3.185991091550     0.116631142315
N     -3.266536144009    -0.167686257458     1.242048296179
C     -3.567144430829     0.741376477303     0.383227208989
O     -3.032060868677     1.004807991108    -0.846524838848
C     -4.660803987101     1.640646378044     0.764052111020
H     -4.359902413606     2.148594293300     1.695218057464
H     -4.823363081681     2.376056023113    -0.042484769980
H     -5.563859831962     1.028830161976     0.928614025319
N      1.972188903221    -0.689365675596    -1.610210073641
C      2.082688386584    -0.784884139266    -2.972078984417
C      2.909365368879    -1.737442275705    -3.532191797116
C      3.610147335011    -2.615000022570    -2.732356509572
C      3.451190715780    -2.524062324309    -1.374367624953
C      2.582220287450    -1.548081613842    -0.843495978851
H      1.546480569931    -0.088793630007    -3.606765951891
H      3.002297721502    -1.796372624501    -4.604729693647
H      4.261678672716    -3.368092049895    -3.168077108175
H      3.944410913772    -3.191275108306    -0.695291379831
O      2.456096780249    -1.569707988193     0.469758892255
H      1.523505429993    -1.255935882833     0.853768460931

