# STO-3G

title

0 1
C      1.084475488420     2.679256090444    -0.697877079297
C      1.987374801752     3.576021607392    -0.086266633295
C      2.257233756888     4.826587800181    -0.683509815358
C      1.629111938194     5.190194501422    -1.889502282166
C      0.731561007523     4.293872671223    -2.502259859748
C      0.462964457040     3.041479580787    -1.913366286341
H      0.886490715157    -1.216813624979     2.543897736625
H      2.482872012755     3.319451551002     0.848107053980
H      2.952537579201     5.511569052972    -0.202275322119
H      1.836929965193     6.154884313537    -2.346323069021
H      0.242894684998     4.561123892554    -3.437228520175
H     -0.227008374350     2.357550154632    -2.405344152243
C      0.061882956597     1.725324373064     2.105045786334
H      0.577492767165     2.665268889381     2.271150481707
H      0.351960002643     0.894586769346     2.739395744331
C     -1.085119380063     1.662116721447     1.315803881826
H     -1.663429865000     0.749226923949     1.265059144894
C     -1.739239592620     2.837097153328     0.712439956131
O     -2.713428024007     2.657514160618    -0.062810072530
O     -1.235038427022     4.123336016492     0.973565037400
C     -1.836278503424     5.194521936984     0.233736015576
H     -1.348261444376     6.152759692086     0.512867335158
H     -1.697125099913     5.044160568944    -0.860835600460
H     -2.923130617538     5.274060700658     0.462691672490
Pd     0.728466543038     0.882610990366     0.107581076404
C     -0.715606522624    -1.715179652294     0.813762612890
O     -1.408902519283    -1.485158306861    -0.233864849478
O      0.408508517339    -1.068669498269     1.050968175306
C     -1.156845044125    -2.710122539415     1.918599683585
H     -0.319317895488    -3.423399419886     2.025896288449
C     -2.406311040710    -3.474053530760     1.555816544559
H     -2.631335406667    -4.214955268137     2.350673529561
H     -3.257375610944    -2.765988466055     1.480511780648
H     -2.273506231019    -4.002752805420     0.589443998186
N     -1.435091010266    -2.050183781228     3.211350202551
C     -0.534326673726    -1.434291468503     3.891581110924
O      0.761900764006    -1.143932655996     3.550600174573
C     -0.936090298167    -0.965477555137     5.220492728735
H     -1.783757253974    -0.272260067996     5.088293378452
H     -1.253531357638    -1.848794532124     5.799508380586
H     -0.085576362299    -0.460865829622     5.712084006746
N      1.676805760194     0.077547778399    -1.558797981418
C      2.993315273324     0.376745450283    -1.787835582147
C      3.587892447619     0.013772358993    -2.977818266238
C      2.866817070459    -0.649564633908    -3.945128544639
C      1.553369424858    -0.942385402608    -3.690213683902
C      0.977527216666    -0.563719052108    -2.457702200397
H      3.565926129727     0.904618338286    -1.034052881991
H      4.622983453530     0.258641536694    -3.150616842833
H      3.328283548365    -0.933957500879    -4.887072701636
H      0.937718262287    -1.456092513864    -4.401591608762
O     -0.285167959846    -0.891905326384    -2.339708072563
H     -0.770290323739    -0.997611206487    -1.398307234608

