# STO-3G

title

0 1
C      0.316353468761     2.604414247407     0.159800987186
C      1.456854048948     3.391798909383    -0.110545910643
C      1.309432765141     4.752162177963    -0.452709257275
C      0.027592082557     5.329494806511    -0.533686241958
C     -1.108293679622     4.540370369494    -0.270790195871
C     -0.969089080049     3.179633702290     0.076594221870
H     -2.145081653682    -1.975045550290     2.419661491904
H      2.454728957989     2.959259782869    -0.054076052304
H      2.194493107175     5.352239783612    -0.654957631505
H     -0.084370950789     6.378526354523    -0.797301654927
H     -2.102513626260     4.978579777004    -0.330501434659
H     -1.859576899243     2.586727593643     0.270893091123
C     -0.514999634052     0.914163106468     2.550223290153
H     -1.166553654498     1.779011672579     2.493969731256
H     -0.995065352685    -0.053522715753     2.625641384651
C      0.849152668353     1.030402656918     2.818037333592
H      1.423500228128     0.129403128340     2.988366359052
C      1.534568685525     2.297685634907     3.123809119231
O      2.792058621500     2.306404816138     3.166302609048
O      0.788640354977     3.485172735538     3.220248700363
C      1.545221834568     4.691508315508     3.389294835507
H      0.849124894074     5.555739935957     3.446041509411
H      2.139848440687     4.658061680752     4.330214239018
H      2.226651022491     4.854845580948     2.524028267994
Pd     0.564332579795     0.668019175780     0.577070587397
C     -0.037208863139    -2.185609103826     1.404998512720
O     -0.481559963578    -2.244037180312     2.595724732925
O      1.036820909352    -1.475581916710     1.098986240867
C     -0.947136364769    -2.781211557414     0.282130505260
H     -1.470695497625    -3.634444285766     0.742319148442
C     -0.215784030738    -3.255501931668    -0.948730465289
H     -0.912007097883    -3.845132217371    -1.580162213318
H      0.120589514081    -2.384107201887    -1.542115597732
H      0.651585368365    -3.888650216318    -0.670361376338
N     -1.909219423153    -1.742326535811    -0.163477450174
C     -2.771516895413    -1.256909181928     0.661942408819
O     -2.922357117682    -1.491138067002     2.001080277337
C     -3.756622520592    -0.311787681230     0.128394293156
H     -4.754274147434    -0.757818268817     0.277967111640
H     -3.668116080087     0.626939558810     0.697172661579
H     -3.569420971333    -0.143700167997    -0.948477103080
N      1.160489710970     0.319595133354    -1.435283420072
C      0.658970216661     1.065648972103    -2.472095399512
C      1.234493961876     0.989823314438    -3.723718260061
C      2.307404241381     0.159151529755    -3.953466674195
C      2.769143064433    -0.604476068082    -2.915484674373
C      2.149140709167    -0.510854671109    -1.652021253835
H     -0.191249171416     1.717842449694    -2.316308359161
H      0.836870969789     1.589881799902    -4.526027050210
H      2.764538652471     0.097980361102    -4.937651247850
H      3.582432106369    -1.292817111427    -3.034634158488
O      2.629316452271    -1.341879270069    -0.754336073701
H      2.008726684864    -1.486652414073     0.084868121355

