# STO-3G

title

0 1
C     -0.883259488362     2.570824151232     1.071859488283
C     -1.178525925941     3.530639722347     0.083198525824
C     -2.006885424995     4.626145420443     0.398144954895
C     -2.553758117145     4.758281269000     1.690306044741
C     -2.272195588590     3.785538151700     2.667136169476
C     -1.432699358196     2.691157197331     2.363272113655
H      0.887001798771    -3.293605437890     1.523408434148
H     -0.792699885726     3.409832883702    -0.925597010887
H     -2.232130902991     5.364519804445    -0.368630582337
H     -3.198192901801     5.601370856371     1.928255377364
H     -2.698559929493     3.870246910661     3.664686796103
H     -1.226889246198     1.952544782957     3.134392569338
C      1.561964858915     1.013348734561     2.363698883544
H      1.000484177924     1.334713154964     3.233898142707
H      1.835563609211    -0.037455497504     2.324117944266
C      2.173783164858     1.922677982792     1.487405359792
H      2.840164684231     1.556873273580     0.716062517476
C      2.142235078603     3.385481449639     1.662069708939
O      2.646319423796     4.115898542682     0.770365482161
O      1.489562727547     3.934480898226     2.779697685444
C      1.280182935532     5.352713669175     2.746972474850
H      0.749170811953     5.667266284807     3.670712454997
H      2.250168009438     5.897457216762     2.696974837366
H      0.647388513139     5.635629207637     1.874655269684
Pd     0.313998797411     1.079267686844     0.536502581182
C     -1.021854370742    -2.758559437105     1.214265377597
O      0.392962651849    -2.582892399393     1.064368903899
O     -1.429714979553    -3.728371391092     1.850407851637
C     -1.764826330013    -1.610419105563     0.537323160351
H     -1.433482758549    -0.681902958929     1.044226796716
C     -3.262405310890    -1.734952531414     0.703701313508
H     -3.762220608638    -0.861616783758     0.235728075169
H     -3.611831764223    -2.659171090312     0.196488162309
H     -3.533908704501    -1.777996640569     1.778994549278
N     -1.488966218311    -1.639249889893    -0.906249131956
C     -1.167331316146    -0.530692553775    -1.517095976925
O     -0.971044017769     0.692677147610    -1.025619867285
C     -1.086186851964    -0.646934178945    -2.981401956651
H     -0.339220617217    -1.419307711021    -3.224956858763
H     -2.080696479065    -0.959032943149    -3.342440212256
H     -0.800649018923     0.326420643787    -3.418773131873
N      3.083084441346     0.354992161000    -1.461133542189
C      3.791513385232     0.385344736406    -2.631876103757
C      3.701488899564    -0.672770676813    -3.520786038367
C      2.905599563842    -1.763088624167    -3.233085054635
C      2.201993436303    -1.761099679626    -2.054896087844
C      2.336233024192    -0.643327032362    -1.195110901832
H      4.422842120496     1.236866895766    -2.857791171067
H      4.265317049617    -0.642306664765    -4.438734449038
H      2.834429145449    -2.598897655395    -3.924327765022
H      1.560416460896    -2.577896875927    -1.781625264773
O      1.612171055886    -0.656990483884    -0.038985172848
H      1.124117294542    -1.496230267291     0.233490118718

