# STO-3G

title

0 1
C      1.566135743120     2.708082866399     0.516822647423
C      2.766441944132     2.997880034434     1.197809679756
C      3.543979697710     4.113945594700     0.817499719354
C      3.123295130030     4.948233054947    -0.233940267041
C      1.924647326628     4.655835038796    -0.914666903803
C      1.147562055711     3.538889028949    -0.547027770608
H      2.476062204163    -1.057065436939     0.852577042298
H      3.113124643367     2.383492117538     2.025654431538
H      4.467254928937     4.328019511120     1.352431267095
H      3.721219726940     5.810698701163    -0.519257050734
H      1.596491195459     5.289117539999    -1.736303962086
H      0.247054658853     3.295487067470    -1.104173110539
C      0.713626750504     1.034957714820     3.073193078025
H      1.703745217170     1.387952872676     3.342557717912
H      0.519941669457    -0.026764460519     3.185439095379
C     -0.354522055967     1.925215185695     2.850296737314
H     -1.348487983158     1.513231184678     2.745898855645
C     -0.281357500509     3.385059303810     3.039760252067
O      0.761266956560     3.906102510816     3.516186133576
O     -1.387841116321     4.165298832996     2.666178354283
C     -1.208396516704     5.585443361505     2.763590079457
H     -2.138068784989     6.098831497228     2.436620745646
H     -0.995311425896     5.887275992257     3.814413623375
H     -0.374222995046     5.923612294194     2.106247332957
Pd     0.371592930109     1.149807900697     0.904750540690
C      1.110760960062    -2.357007454941     1.473105222341
O      1.760032732246    -1.598485543632     0.448839280298
O      1.574890995920    -2.318550787680     2.615905573986
C     -0.043335473285    -3.232139367784     0.953863996545
H     -0.473887894334    -3.669551125849     1.866904803115
C      0.468061854962    -4.359665593483     0.084193177670
H     -0.370845899913    -5.041606993075    -0.167821732497
H      0.877728113551    -3.940559318185    -0.856811654305
H      1.255939014037    -4.935184408753     0.613305292270
N     -1.109448186831    -2.574487168074     0.189103067767
C     -1.440364788294    -1.352964380470     0.487822324648
O     -0.852972921134    -0.560085750173     1.386805099512
C     -2.648708728753    -0.826847532981    -0.169728989951
H     -2.964296843975    -1.525130750360    -0.967379013355
H     -3.434002218166    -0.750557428634     0.599433916143
H     -2.430212150503     0.166635753391    -0.592401504467
N     -0.720426200734     1.349689363870    -2.359442908920
C     -1.547012255495     1.429211662079    -3.447720468093
C     -1.737559547781     0.319705443764    -4.252813984606
C     -1.087626130739    -0.865731423051    -3.974724182267
C     -0.251020920836    -0.908075191343    -2.888436527900
C     -0.104488472328     0.262974424637    -2.106801448090
H     -2.061937863703     2.357380444806    -3.666416698500
H     -2.397011387191     0.387314206969    -5.102460197854
H     -1.236191459973    -1.742943529777    -4.599075719354
H      0.265774852637    -1.806791523289    -2.616218227463
O      0.726300386227     0.182217858930    -1.025480665878
H      1.031728080150    -0.718560971931    -0.694445577992

