# STO-3G

title

0 1
C      0.108818433783     3.707882963935     0.004176501674
C      0.409813870079     5.085859684064    -0.110431323204
C     -0.353168453813     5.923096206773    -0.942693141034
C     -1.420841868811     5.389988551985    -1.689699764736
C     -1.709823092279     4.012645030118    -1.605880233811
C     -0.952736878502     3.176965265876    -0.769710758765
H     -2.476945456808     0.563929133459    -0.021498097625
H      1.235127847175     5.503870603336     0.463589282266
H     -0.115210544528     6.981847057597    -1.010305102466
H     -2.009926153352     6.034296004714    -2.337824734639
H     -2.514717284864     3.591941033757    -2.204278644199
H     -1.139044295098     2.107011017398    -0.755541998286
C      0.919645747193     2.887850499752     0.935688457860
H      2.959018202170     1.593925264525     0.152681956958
H      1.872091254897     3.329617152964     1.221197040534
C      0.462567151103     1.775035632428     1.647503484125
H     -0.558532366397     1.446752432755     1.544582921229
C      1.224317037392     1.108347472261     2.710601942609
O      2.482222191241     1.130748316006     2.621950581445
O      0.570807133176     0.131709987678     3.474432621382
C      1.404335998733    -0.699759378455     4.292785852099
H      0.764941495269    -1.414288200198     4.855780828812
H      2.109430241919    -1.291736797630     3.665773541257
H      1.975568139754    -0.090031731527     5.028547165668
Pd     1.591886125736     0.974019836350    -0.167412136296
C     -0.513322337010    -1.037260122069     0.369362959616
O      0.425988527666    -1.805815694807     0.792682197959
O     -0.342125032053    -0.061417871187    -0.473506299129
C     -1.926684233068    -1.204700232120     0.965036091610
H     -1.833713489632    -1.474054394664     2.021416419777
C     -2.735936927147    -2.265413167816     0.252249577026
H     -3.723806548520    -2.366172271208     0.747796579646
H     -2.896546459590    -1.959170719897    -0.801680581959
H     -2.208222782213    -3.240737866762     0.287404062543
N     -2.630045759480     0.071460573267     0.851841008015
C     -3.201823397565     0.682345165821     1.924766543708
O     -3.254547176213     0.208672197576     3.082241328587
C     -3.785026145865     2.012301846239     1.648293804082
H     -4.550510538295     1.889364838974     0.864458674125
H     -4.237213181413     2.397128677840     2.578540110961
H     -2.977381557334     2.683002576398     1.306126963406
N      2.619592155121    -0.101718726468    -1.585712837368
C      3.065471328561     0.539902085087    -2.709471277604
C      3.944668923019    -0.093066984775    -3.560822787630
C      4.367097399221    -1.378339100723    -3.301968043056
C      3.890029257216    -2.006099758103    -2.181767248035
C      2.987541983830    -1.333028587600    -1.329307651846
H      2.738573852029     1.552060940138    -2.919349592151
H      4.296403250927     0.420863304478    -4.441032555073
H      5.056398563539    -1.884348056915    -3.973058220729
H      4.169345550067    -3.010921804015    -1.932207850343
O      2.581252942904    -2.039485685226    -0.311202253172
H      1.646697160540    -1.829900195743     0.218721546648

