# STO-3G

title

0 1
C      0.139230818662     3.846478731343     0.168997568900
C      0.445241673457     5.227777724896     0.218878036854
C     -0.289225323548     6.155692457136    -0.538991322517
C     -1.330475119360     5.712746293362    -1.376902387558
C     -1.619364833855     4.335622174128    -1.460889276542
C     -0.891857707537     3.408197750656    -0.698304046802
H     -2.193699625364     0.852499092685    -0.085074563969
H      1.252047614040     5.575831444746     0.861844741352
H     -0.048332231089     7.214209663773    -0.480424818499
H     -1.897110867964     6.427755651467    -1.968304953020
H     -2.400535119772     3.987106598220    -2.132142252364
H     -1.067477355660     2.344038511840    -0.820131924192
C      0.913246191800     2.932463067846     1.040501232979
H      2.985472311606     1.728042830050     0.245925844775
H      1.867070729776     3.331880998052     1.381171688388
C      0.425227309868     1.770429055183     1.646491650253
H     -0.587778830903     1.448188468353     1.484088462896
C      1.164252910018     0.995264208066     2.649016767002
O      2.419459971587     0.952121756628     2.516531790738
O      0.480133526506    -0.019538859551     3.330836559990
C      1.282413670320    -0.920119871258     4.106695034499
H      0.618561263795    -1.657239524833     4.609833821747
H      1.988502438734    -1.484698463360     3.456191515933
H      1.849798101700    -0.372510469318     4.892647675769
Pd     1.626631441372     1.051957314803    -0.147656907219
C     -0.523428127021    -1.007512438460    -0.222915033644
O      0.245438957110    -1.992855172704    -0.328128952044
O     -0.260436955353     0.224722196750    -0.683292106353
C     -1.897688215790    -1.128112611476     0.501087292700
H     -1.727029978623    -1.555672578585     1.496337905012
C     -2.866931198128    -2.017388554133    -0.246664318102
H     -3.804508484623    -2.114085547101     0.339352846794
H     -3.104067594885    -1.557266361693    -1.227146731716
H     -2.426389388337    -3.024373258275    -0.398664161331
N     -2.494494561289     0.199787464124     0.630966862866
C     -3.184574579634     0.597444958889     1.729241735019
O     -3.429538743363    -0.117616052321     2.729268194611
C     -3.665589090040     1.995915586657     1.690580836554
H     -4.324580753352     2.100863378491     0.812906958093
H     -4.220699733188     2.201880726966     2.621744530793
H     -2.793036018869     2.666900352572     1.602538234817
N      2.644885990145    -0.226120188519    -1.401415090472
C      2.032547058669    -0.712467950477    -2.527970729576
C      2.688138329634    -1.635104978242    -3.318648862848
C      3.937219114180    -2.098378392031    -2.966311726040
C      4.513249994639    -1.608066835503    -1.822282298820
C      3.811447409962    -0.665633710394    -1.048144810270
H      1.054614023983    -0.348546103970    -2.819704719906
H      2.203313273737    -2.010384536862    -4.205181349050
H      4.449506671560    -2.837480953709    -3.576706115702
H      5.473556049094    -1.942019469700    -1.482426539904
O      4.445285119243    -0.289495301675     0.058533045065
H      3.902333253343     0.383758103687     0.561826801327

