# STO-3G

title

0 1
C      0.307540135464     3.889580116874     0.144694083701
C     -1.085248103186     3.986660934038     0.377165123506
C     -1.868234910804     4.874325633964    -0.380434791912
C     -1.280659350927     5.677014666454    -1.378627683316
C      0.107070564177     5.596096247405    -1.608126901882
C      0.891993015358     4.715303618790    -0.846681593289
H     -3.373683113452    -0.449997793169    -0.190469477799
H     -1.546147103838     3.388893126167     1.157795868060
H     -2.935279411733     4.952846929426    -0.184664022207
H     -1.892169722166     6.363655540268    -1.959607215490
H      0.571870729344     6.219985228825    -2.367899075601
H      1.965000627221     4.656276061058    -1.023003670488
C      1.194405876224     3.001612134626     0.933089627817
H      2.953638669755     1.549443116916    -0.170608581327
H      2.236081956947     3.315295965996     0.955413187863
C      0.785605579566     1.969958435857     1.781171835101
H     -0.260273712172     1.729534761536     1.901464183669
C      1.693008013989     1.255526279660     2.687763069471
O      2.894139168513     1.128651710061     2.321480276521
O      1.141415717882     0.412092532056     3.663982109919
C      2.050938664900    -0.490351606040     4.308142157874
H      1.497606395419    -1.089790158371     5.062981941772
H      2.495602327157    -1.195871779793     3.569384258459
H      2.861206533615     0.066443895792     4.830586479628
Pd     1.512061709101     1.011345185620    -0.194750295377
C     -0.580115900880    -0.865309581817     0.685451321807
O      0.412820405667    -1.543382084115     1.159681744145
O     -0.477227196248     0.101762525264    -0.161788509692
C     -1.987088248617    -1.186881052548     1.245474380749
H     -1.916263445002    -1.062323030145     2.332211789490
C     -2.432752013007    -2.601723391452     0.945276057743
H     -3.429262147957    -2.777851897279     1.400605922034
H     -2.510654028464    -2.741582713524    -0.151848412952
H     -1.707979065533    -3.330397064668     1.363734145740
N     -2.988552984401    -0.264437566125     0.727170624272
C     -3.079570220379     0.993044374185     1.224554229109
O     -2.383074830403     1.441208916475     2.169785122892
C     -4.086640638039     1.862815005043     0.582602306166
H     -5.063900565723     1.357044727188     0.654535737288
H     -4.107981907086     2.828477694406     1.115674823029
H     -3.790619697420     2.006243904892    -0.471095065477
N      2.228811215576    -0.267279930659    -1.642672746301
C      2.455500555613     0.198310077334    -2.909217445923
C      3.180845397252    -0.561323064564    -3.801677686420
C      3.663892484405    -1.799151751420    -3.437053441821
C      3.402761786669    -2.251893385301    -2.170532047220
C      2.654453837590    -1.451370335755    -1.280252241304
H      2.079755091316     1.172052634067    -3.202378827108
H      3.361575968073    -0.185778890495    -4.796056052882
H      4.231262341972    -2.404857329064    -4.138990557367
H      3.736392962663    -3.212528025592    -1.830492025024
O      2.437049959747    -1.996142502195    -0.112525945302
H      1.591489282078    -1.671929011803     0.500163792611

