# STO-3G

title

0 1
C      0.257874571835     3.829843370339     0.263977008064
C      0.716379459604     5.147727134252     0.026184550103
C     -0.026123847211     6.039490564684    -0.766585845250
C     -1.236636585048     5.619538654361    -1.349751086970
C     -1.691067467476     4.301958604979    -1.136692877130
C     -0.954461783478     3.412408409085    -0.338613997531
H     -3.415852097909    -0.324841898914    -0.409536908153
H      1.654408694045     5.475280346747     0.471946808723
H      0.336978298348     7.051333328891    -0.930499070855
H     -1.812391270761     6.304211666403    -1.968234856226
H     -2.614915663650     3.970503281568    -1.605298207816
H     -1.285693218740     2.386727979575    -0.213246802647
C      1.079254044593     2.948881126423     1.127852111838
H      2.971342763920     1.588079719365     0.153458326541
H      2.077797270701     3.330935952863     1.332218061054
C      0.619203517197     1.852882028052     1.866409708238
H     -0.424811429398     1.581757566396     1.870720094443
C      1.446797660643     1.128047353701     2.840252297076
O      2.690368955138     1.089637972674     2.627874203962
O      0.829889964867     0.192792687658     3.684590038637
C      1.704902580742    -0.685114541600     4.405563254748
H      1.097156672383    -1.362425344488     5.043744349216
H      2.297412015489    -1.315234798792     3.703654813174
H      2.392171653386    -0.108505190235     5.064789160771
Pd     1.548739039926     1.051354637896    -0.069842223137
C     -0.601667120602    -0.901426777567     0.462503440426
O      0.367005808539    -1.611486849190     0.935219214513
O     -0.454823951560     0.143617333984    -0.282615603273
C     -2.033991807134    -1.300948258996     0.892867009556
H     -2.005455939599    -1.383197462614     1.985424023185
C     -2.465990452454    -2.632178664412     0.316140607494
H     -3.479081458741    -2.884854255553     0.692000346257
H     -2.501165753653    -2.563608530470    -0.790013605785
H     -1.757011142835    -3.430709887337     0.618149269457
N     -3.019100360115    -0.293104521669     0.520799389801
C     -3.126367084066     0.851266338850     1.243793830572
O     -2.428407200801     1.123108256799     2.250592964794
C     -4.150609357611     1.810271479647     0.781590822821
H     -5.129858872893     1.306575542619     0.834729072665
H     -4.126143264041     2.693704810195     1.443534568480
H     -3.912365224395     2.098547511843    -0.255738076401
N      2.420402549760    -0.081964013227    -1.556110333934
C      2.768066746152     0.508981896748    -2.740422080978
C      3.589152401193    -0.155808917056    -3.625679750180
C      4.049125018603    -1.422504058399    -3.338466764612
C      3.667939486520    -2.000176196181    -2.155929085738
C      2.824209589431    -1.294126827936    -1.271312185179
H      2.411237138141     1.506172827161    -2.972130099404
H      3.864943052620     0.318392697101    -4.553920729657
H      4.692570411021    -1.953104786685    -4.035558202389
H      3.979309558558    -2.988398419485    -1.879829063307
O      2.500453169787    -1.951037871379    -0.188634463619
H      1.602689615525    -1.683492722162     0.367772884875

