# STO-3G

title

0 1
C      0.423976330774     3.721477352912     0.625855525020
C      0.988219921452     5.018501214949     0.562352293413
C      0.373449279245     6.038663958686    -0.183238053379
C     -0.810980742998     5.771247053053    -0.895897669304
C     -1.366034536181     4.475987680175    -0.859856378147
C     -0.758763114578     3.457140605841    -0.108249162794
H     -3.385833218327     0.315282751772    -0.781229083972
H      1.907727923858     5.229305176073     1.106358408986
H      0.815961602039     7.031579156082    -0.211858336926
H     -1.287072468175     6.556162407062    -1.479100280601
H     -2.267399075304     4.261192359812    -1.430005454576
H     -1.160816432191     2.448774029611    -0.125297996779
C      1.114575044176     2.702732901489     1.452960521840
H      2.942204886262     1.319957038075     0.458730153484
H      2.126311094335     2.983837255235     1.739581578133
C      0.524110098412     1.597429162844     2.082808825631
H     -0.538691397180     1.416545488724     2.022678487769
C      1.241348655997     0.750833935540     3.047057438409
O      0.595615912953     0.008098492247     3.826957717666
O      2.616119324026     0.536375057392     2.811861561438
C      3.237544064075    -0.456703224843     3.642926767629
H      4.317110202046    -0.539378607947     3.390881289747
H      3.152950337351    -0.182408821215     4.719807608687
H      2.767435267769    -1.455868142860     3.485183495222
Pd     1.472873818766     0.874557020274     0.132557329964
C     -0.831899463421    -0.833048939268     0.266957395926
O      0.012591602204    -1.647009719207     0.730993679085
O     -0.521900772316     0.299792723183    -0.353631522172
C     -2.355405055863    -1.084154307001     0.452885421907
H     -2.485465834433    -1.360696238587     1.504944457086
C     -2.869313089623    -2.211906164947    -0.416208094246
H     -3.945804108083    -2.378697676662    -0.204768042409
H     -2.750440305595    -1.940053681635    -1.484149763477
H     -2.307348995080    -3.144857633765    -0.203443251172
N     -3.157352408540     0.106992079974     0.181960139018
C     -3.240809191599     1.088375671021     1.118507344346
O     -2.633970013483     1.067184464434     2.217935342614
C     -4.118188120445     2.240931014659     0.816092438648
H     -4.897127269335     2.271052068300     1.595529284011
H     -3.498356698439     3.151086650409     0.867327885395
H     -4.578141801534     2.134448649173    -0.181225220208
N      2.184434886034    -0.325931818477    -1.385214020767
C      1.467558679913    -0.478003927804    -2.542949700890
C      1.898472910228    -1.376527455300    -3.498814497914
C      3.032618454842    -2.133359711864    -3.289637055613
C      3.721059882584    -1.963161246819    -2.114989678374
C      3.243347447476    -1.038735201845    -1.168489007103
H      0.579987797385     0.119176098393    -2.718033697423
H      1.333592677499    -1.491573725121    -4.409902730130
H      3.369718596949    -2.849018219338    -4.035072747785
H      4.599514758654    -2.532007788954    -1.882612382568
O      3.957453545095    -0.966071497055    -0.049411743882
H      3.563053338006    -0.273456523005     0.556826747426

