# STO-3G

title

0 1
C      0.202024891019     3.776762155882     0.211158873625
C      0.601143347891     5.118400710715    -0.000498149983
C     -0.168183458816     5.984988083114    -0.795687007578
C     -1.345364013711     5.516245202859    -1.409367509031
C     -1.738246038312     4.175045873199    -1.224612505151
C     -0.975421570473     3.310076491560    -0.423727940754
H     -3.323843436468    -0.094060073501    -0.445676383138
H      1.513048247629     5.484600450545     0.468716616399
H      0.148960315573     7.015335399059    -0.938161010688
H     -1.940993825212     6.181528979270    -2.030155764099
H     -2.634220464110     3.803435604077    -1.717399546986
H     -1.256897374857     2.266012375473    -0.326101421635
C      1.048412402247     2.927270620818     1.083374611026
H      2.989705912389     1.569114127344     0.159626842288
H      2.035033765042     3.341263570095     1.283860627103
C      0.621966748136     1.828762723916     1.838820469394
H     -0.412821724069     1.526586650807     1.848520380930
C      1.467162694858     1.149212632715     2.830773813502
O      2.713971882220     1.160674343690     2.635345682281
O      0.879391263072     0.197155659412     3.676633487222
C      1.780354154769    -0.623363029477     4.432366601352
H      1.192291941070    -1.319990842238     5.068300208683
H      2.420389109770    -1.234020551858     3.755583293622
H      2.421642119406    -0.001861037381     5.097087818812
Pd     1.572456316674     1.026990469629    -0.084801554421
C     -0.616775342045    -0.905725321087     0.410500761808
O      0.324160349253    -1.645164200097     0.890600603052
O     -0.430060304141     0.136094277241    -0.331949630376
C     -2.067419585458    -1.258583670588     0.815268055715
H     -2.050372895400    -1.413512257287     1.899348499305
C     -2.565231827117    -2.523157589690     0.148734624003
H     -3.590690315475    -2.749057876090     0.507698440476
H     -2.594958527148    -2.376819138715    -0.950029165861
H     -1.898143515826    -3.375336276914     0.394236103745
N     -2.998921553852    -0.178120002139     0.508851109428
C     -3.101571439486     0.881782614556     1.355977917671
O     -2.420020737883     1.012841727140     2.401967483689
C     -4.093864166628     1.924987394227     1.017273211789
H     -4.623530232375     1.668434456138     0.084665491210
H     -4.804981366057     1.982580039663     1.857243658415
H     -3.555412770082     2.882332638735     0.910139938910
N      2.470251965404    -0.121321358406    -1.543649225388
C      2.859656626257     0.462491647297    -2.718516163682
C      3.696536284058    -0.214916261924    -3.578973183820
C      4.131081492899    -1.487037312290    -3.276812101791
C      3.708577685675    -2.057259248756    -2.104801988375
C      2.849241577783    -1.338590943029    -1.245609062381
H      2.523138098389     1.463929521828    -2.961942365776
H      4.005074808549     0.253724210893    -4.499707389559
H      4.786977451064    -2.027544324506    -3.954427299184
H      3.998694681387    -3.049058488562    -1.818509912065
O      2.486608832372    -1.989234717628    -0.171906485270
H      1.570659668567    -1.721167929054     0.357221106559

