# STO-3G

title

0 1
C      0.360710778508     4.080702647721    -0.122954348385
C      0.994847182734     5.327866973917    -0.340836466315
C      0.487472316878     6.239012799927    -1.282088652539
C     -0.657751684105     5.908421943640    -2.031437156493
C     -1.281723351929     4.658282218764    -1.839703054291
C     -0.779475887826     3.747591082411    -0.897599083983
H     -2.310351194088     0.606048493305     0.583419442041
H      1.882569988347     5.585707947515     0.234997111738
H      0.981344765835     7.195834696463    -1.432086092449
H     -1.051952374382     6.609085904110    -2.763594614765
H     -2.150460543615     4.390769123997    -2.436085174562
H     -1.228735723687     2.763220173292    -0.804612689660
C      0.919102017367     3.189940187687     0.916820395632
H      2.854387884654     1.616061888663     0.450293814790
H      1.891852896610     3.490665415945     1.301429716689
C      0.226360357506     2.172100406971     1.579212273536
H     -0.802307268766     1.971398521493     1.342381298053
C      0.757723753866     1.432503666206     2.727592458545
O      1.966793489574     1.075064989497     2.662927988015
O     -0.143507346661     0.792743354232     3.587914783364
C      0.390499308220    -0.243545608186     4.423340464653
H     -0.430060128174    -0.673796410038     5.039551857363
H      0.810532519753    -1.071198921433     3.807923628048
H      1.172550545479     0.155878597037     5.107324703985
Pd     1.452560591861     1.167313385456    -0.062902478877
C     -0.753541397459    -0.729481762681    -0.911703827184
O     -0.245270763451    -1.433852258391    -1.818725358437
O     -0.495635026026     0.567462059142    -0.708894579015
C     -1.755381977268    -1.356291931468     0.102290948657
H     -1.208245244044    -2.088923919793     0.709339095544
C     -2.905330620996    -2.064461747702    -0.581866253223
H     -3.555912698702    -2.538728297133     0.181999380196
H     -3.502465852299    -1.324876010910    -1.152676518550
H     -2.522581237375    -2.847479179241    -1.268771349695
N     -2.310546709722    -0.327740644754     0.978137147360
C     -2.583201920524    -0.558859510270     2.288235756208
O     -2.358210867385    -1.637059255008     2.891149260132
C     -3.260264344216     0.550377293777     2.995707598152
H     -4.209141285261     0.751660951906     2.471362387336
H     -3.448543031612     0.236915789680     4.036582455013
H     -2.607487736673     1.437504860117     2.973771279184
N      2.467636001388    -0.126990396590    -1.305133297123
C      2.144222283685    -0.217964698943    -2.634788966359
C      2.863147479532    -1.064490713923    -3.455404516380
C      3.869044945170    -1.853260644110    -2.940136724694
C      4.154775054425    -1.750916390023    -1.602078822883
C      3.411150502222    -0.859562301268    -0.807558112215
H      1.346995639222     0.393037000909    -3.043587619012
H      2.601763594205    -1.134140480543    -4.498750461944
H      4.419531936896    -2.540052506940    -3.577725731170
H      4.918353735649    -2.342795865257    -1.137522353135
O      3.765127618265    -0.842692913941     0.476358516125
H      3.249762905413    -0.153301119037     0.978468347134

