# STO-3G

title

0 1
C      0.306521065629     3.630658458374     0.404484930352
C      0.993563649587     4.463548922654    -0.511818404616
C      0.297717201488     5.367348575093    -1.329431495907
C     -1.104527265874     5.465657191822    -1.232453345559
C     -1.795359281238     4.651886233654    -0.314006968180
C     -1.101021519335     3.738367026806     0.498614506053
H     -3.803293505673    -0.721833963668    -0.257670427261
H      2.076337887566     4.385517314416    -0.595282280355
H      0.841190148029     5.990417296919    -2.035744913754
H     -1.648027556866     6.168400363930    -1.859912828498
H     -2.875837961049     4.737538600606    -0.224423079215
H     -1.649382241554     3.125797292730     1.207624801520
C      1.103734077244     2.745533115310     1.291881328608
H      2.693928492127     1.722536587536    -0.127994371343
H      2.118550145924     3.098552703293     1.459333486517
C      0.613944392433     1.698021209878     2.074107210103
H     -0.432398327067     1.427989646098     2.044159767241
C      1.398972757335     1.055633198259     3.137407791728
O      0.825274383657     0.291897328093     3.954913442791
O      2.799975333646     1.032121166597     2.986082386903
C      3.520537348620     0.318680042599     4.002078710345
H      4.611470760061     0.382188752387     3.800451149852
H      3.328019976168     0.759552762792     5.007168728387
H      3.229959828913    -0.757176807032     4.013895747660
Pd     1.633350122777     0.686512601968     0.272508826474
C     -0.925216998720    -0.780808949532     0.246394833322
O     -1.120127588245    -0.213099421911    -0.902829227966
O      0.211692110762    -0.875247023216     0.838318515480
C     -2.181618320614    -1.305478874625     0.984008179920
H     -1.991388741773    -1.200356187050     2.055691372545
C     -2.481307427798    -2.755169581848     0.670716964427
H     -3.380157097298    -3.074705121205     1.237572210594
H     -2.684475724356    -2.865857042576    -0.414226243441
H     -1.621516773131    -3.394631468268     0.957765470796
N     -3.343577653116    -0.499816778799     0.616592259522
C     -3.433452762485     0.765049929340     1.100786901629
O     -2.608156277418     1.271417923546     1.902706148769
C     -4.574820092509     1.585166011133     0.643035586145
H     -5.106350597444     1.942617654158     1.540265639643
H     -4.159272908346     2.432121302969     0.073972941596
H     -5.254045476440     0.988755210287     0.009133255222
N      2.440939211015    -0.399590375808    -1.275170405166
C      3.702738030282    -0.917627210796    -1.162071624199
C      4.336286963700    -1.437212914028    -2.269888418836
C      3.702611564605    -1.457913420773    -3.493176251193
C      2.431750852644    -0.953758820255    -3.575101654737
C      1.805886657911    -0.434426372906    -2.420692710434
H      4.209423925348    -0.901372125180    -0.203906616378
H      5.332944456851    -1.837483756671    -2.175409467130
H      4.195682411067    -1.870052041158    -4.369868922972
H      1.877983952484    -0.953050266209    -4.493653565577
O      0.586694244407    -0.005255626384    -2.609103703523
H     -0.138046039944     0.012181410514    -1.776955537125

