# STO-3G

title

0 1
C      0.251643332104     3.546292937605     0.643216691907
C      0.874584211593     4.498581202444    -0.200255302666
C      0.117560500513     5.464650478206    -0.881527324266
C     -1.279979142761     5.509670129796    -0.711889382717
C     -1.908508697251     4.581440956651     0.141765760357
C     -1.152707919259     3.602950747010     0.809396349325
H     -2.436992025363     0.865705524155    -0.171343389100
H      1.955956486740     4.473374361241    -0.322915037441
H      0.611177427170     6.184517295850    -1.529561465377
H     -1.869908559965     6.265267147875    -1.224906450793
H     -2.982697071017     4.640096857327     0.298160385834
H     -1.645829727318     2.911735424551     1.487763627751
C      1.110963330498     2.583924821891     1.371341946361
H      3.009619303055     1.179484637400     0.335160630748
H      2.127476117624     2.931478732459     1.540037950706
C      0.683543573706     1.424300998781     2.025984611747
H     -0.354508170004     1.127342497639     1.985814638461
C      1.502243689895     0.679045289030     2.991789427278
O      0.966493603467    -0.244673155860     3.653252936633
O      2.902276328795     0.772138156875     2.878875791997
C      3.654695917798    -0.085464955136     3.750342543739
H      4.741915220156     0.082561478083     3.591902621007
H      3.422720740792     0.131971262444     4.818270772525
H      3.435298184613    -1.157886634541     3.539539278387
Pd     1.553208265146     0.818758067804    -0.001725583078
C     -0.823058864473    -0.928066703784     0.172801321178
O      0.002097265605    -1.863250483665     0.484943741652
O     -0.490116479956     0.191937315449    -0.396507621022
C     -2.302726117334    -1.085593433481     0.556967027119
H     -2.366650209338    -1.459144393194     1.584889485217
C     -3.036954366341    -2.046849376691    -0.353826483250
H     -4.083392960092    -2.159606892490    -0.001425760901
H     -3.050717845699    -1.637568225590    -1.384629236501
H     -2.541975370194    -3.039866293788    -0.346260962542
N     -2.931990999775     0.229819294222     0.451519439218
C     -3.924303622831     0.606874430343     1.295869627263
O     -4.380381676682    -0.103322763792     2.223871125711
C     -4.507844744512     1.947800959767     1.071111625399
H     -5.593845659953     1.813851909584     0.936369246905
H     -4.302929706825     2.551803094446     1.969491626141
H     -4.070157359959     2.413054041889     0.171129346987
N      2.372880164335    -0.171962530054    -1.611871042915
C      2.830866971980     0.538474547328    -2.688119790504
C      3.611952653057    -0.081346766799    -3.639441599619
C      3.917573603469    -1.420532256517    -3.530950806067
C      3.425134569227    -2.114891268129    -2.457355049924
C      2.622541853296    -1.453386264318    -1.502915579092
H      2.596406792673     1.593043903008    -2.778967531983
H      3.975247568529     0.485684231928    -4.481582789689
H      4.526920661259    -1.915877628377    -4.282579130111
H      3.610158545328    -3.162994618361    -2.325356135055
O      2.179285755135    -2.215459518500    -0.540454208675
H      1.250809920069    -1.972039151009    -0.012110785807

