# STO-3G

title

0 1
C      0.350563385810     3.912809564906    -0.239259527966
C     -1.060457180933     4.036830203879    -0.286816836154
C     -1.658517909297     4.895355900382    -1.224804351941
C     -0.868886126909     5.642115957722    -2.121889796832
C      0.535338425463     5.537883662506    -2.067931454824
C      1.137009333916     4.685199994115    -1.128971579965
H     -2.364376557405     0.909793654162     0.062280290714
H     -1.693589500822     3.507373661850     0.421908953238
H     -2.741449041645     4.991576392406    -1.244506755949
H     -1.340495673587     6.305865530328    -2.842894311293
H      1.152576600931     6.121449833973    -2.746773290247
H      2.222398233945     4.606486887294    -1.086476921206
C      1.044059273060     3.040996837184     0.736260867465
H      2.924765256607     1.518102904587     0.038208002296
H      2.068409233678     3.325928441210     0.964185793107
C      0.434836891023     2.041000031486     1.493338423063
H     -0.619324067862     1.860906172744     1.387205762907
C      1.080369111867     1.318796296885     2.593307957573
O      2.325258918747     1.133922204173     2.507806232580
O      0.280893869441     0.487789517283     3.396673522509
C      0.982552047103    -0.429485144594     4.247603855525
H      0.249279668402    -1.013697993576     4.844173361453
H      1.583077938587    -1.147949716739     3.643412731468
H      1.650690291265     0.114080500020     4.953581909693
Pd     1.513812817026     0.978367165977    -0.242864773707
C     -0.701176338101    -0.926102698538     0.320478880883
O      0.170307055014    -1.712129121393     0.845038703302
O     -0.442886715516     0.031159753649    -0.514683794619
C     -2.174428121329    -1.021960991889     0.795672011514
H     -2.183773260603    -1.536117889789     1.759956440009
C     -3.053244840679    -1.775890042906    -0.176191614749
H     -4.088893065539    -1.815927110610     0.219255058411
H     -3.068337142667    -1.240343436103    -1.148904135927
H     -2.672382544468    -2.807645677669    -0.321525932214
N     -2.656255633165     0.361937321483     0.873632562053
C     -3.008256429440     1.110347897812     1.949385287760
O     -3.030383535724     2.369039028574     1.916707905448
C     -3.385417473415     0.404416915082     3.191521602470
H     -4.182551391625    -0.316981200785     2.946953114983
H     -2.485168126773    -0.087716166556     3.593347631217
H     -3.755917373658     1.150738193952     3.917585798341
N      2.475457258562    -0.272361415798    -1.562957774961
C      2.924593964897     0.246215245850    -2.747285910158
C      3.787569945419    -0.484639709954    -3.534924986636
C      4.187576209122    -1.745863295053    -3.151279147302
C      3.703434933208    -2.251145831840    -1.973306543448
C      2.817363838773    -1.479242641535    -1.190645332622
H      2.616101501469     1.239333822212    -3.054016278450
H      4.143322863913    -0.067058704986    -4.463211746388
H      4.863698085088    -2.328793983664    -3.771409679425
H      3.963065605889    -3.232275384800    -1.627386676412
O      2.393961096094    -2.076466118581    -0.107523218847
H      1.456932929416    -1.798116884317     0.355991824740

