# STO-3G

title

0 1
C     -0.261407523126     3.482544626886    -0.113009201433
C      0.399377154723     4.714310043166     0.113536494003
C      0.184718542514     5.806953920053    -0.741421342144
C     -0.693585557188     5.691744970541    -1.838414365326
C     -1.357939696600     4.472185474571    -2.073242244710
C     -1.145336427797     3.380521114151    -1.215499570972
H     -3.241426786581    -0.041070649525     0.014024313488
H      1.070395088042     4.826860217062     0.961632492188
H      0.693343277461     6.749481444039    -0.552377484236
H     -0.858994824337     6.541109704574    -2.496998476003
H     -2.034386425657     4.374889687052    -2.919094726445
H     -1.639232843449     2.429789742130    -1.407892810095
C     -0.095675967389     2.297612926258     0.756037177355
H      2.722735432619     1.634255396448     0.183562061461
H     -0.875253907463     1.551757421090     0.654954768742
C      0.854979503175     2.143398708388     1.760082812564
H      1.567413097078     2.923222518385     1.973717444924
C      0.880817887123     1.019946189361     2.697700570492
O      1.087987636602    -0.103592457283     2.169014300017
O      1.352172752785     1.274219989740     3.993865024394
C      1.317460574608     0.147594309228     4.881084405154
H      1.667364987561     0.460507459989     5.888116758271
H      0.277644851402    -0.242534740316     4.980898770339
H      1.985307395721    -0.667357866123     4.519719233649
Pd     1.436656156435     0.884778664946    -0.166889716298
C     -0.641899300937    -1.320022137806     0.122846302630
O      0.243878117605    -2.245561895321     0.283685459519
O     -0.473627516150    -0.227762413117    -0.544034755853
C     -1.991018172215    -1.538929847156     0.854287844289
H     -1.737142096826    -1.809082388145     1.884672525919
C     -2.811331252577    -2.654293747461     0.243262402968
H     -3.739312678656    -2.796250914391     0.834765536085
H     -3.086694914715    -2.384042397851    -0.796189533991
H     -2.232040255922    -3.600869005216     0.242108769115
N     -2.808568807367    -0.330817028498     0.882394376117
C     -2.745196919923     0.545816519287     1.922228090359
O     -1.999501012196     0.428398797465     2.923798502178
C     -3.635957542848     1.720644382854     1.812122691579
H     -4.672477201739     1.352389741870     1.735377099030
H     -3.508357762628     2.345015854459     2.713344224731
H     -3.352930585848     2.290226333278     0.909565967471
N      2.581171297203    -0.054082245322    -1.593003875466
C      3.118589820705     0.749555937916    -2.562169996615
C      4.074780688496     0.253377677564    -3.420215699745
C      4.484846860386    -1.057500343926    -3.327488560712
C      3.917299076301    -1.849149446395    -2.365549533919
C      2.934895733269    -1.316397589585    -1.499075091082
H      2.802217323773     1.783437171385    -2.642488470678
H      4.496760818993     0.895690298906    -4.176307875558
H      5.234845372803    -1.456418454496    -4.005552896791
H      4.182419713227    -2.881947776148    -2.252021774651
O      2.453958497889    -2.173041716624    -0.652322621906
H      1.429459676348    -2.100579755406    -0.165665138852

