# STO-3G

title

0 1
C      0.206341588906     3.517702004507     0.562832665288
C      0.813787321367     4.357009124581    -0.402128081984
C      0.045749003225     5.239472709037    -1.177462012305
C     -1.348965261041     5.309458810658    -0.988778862521
C     -1.959980052768     4.490395978450    -0.019960003945
C     -1.192881215689     3.599855970829     0.751583673450
H     -3.766832330104    -0.458651627497    -0.396977152045
H      1.889545358927     4.298419198005    -0.558496519025
H      0.527850029812     5.866929117988    -1.923215706310
H     -1.947579851641     5.994795841930    -1.584416647348
H     -3.033826908824     4.553724888822     0.141308802746
H     -1.676199700052     2.985251133153     1.504300582140
C      1.073353371101     2.651002004796     1.401418278315
H      2.756170781745     1.696108800886     0.006696944104
H      2.075019653029     3.048630859233     1.545208394926
C      0.659648455049     1.559904515621     2.168632441821
H     -0.373250681420     1.240395774609     2.165157698597
C      1.512631448818     0.923952626383     3.182102301236
O      1.008049493444     0.099635351241     3.985782918830
O      2.906131374698     0.970557106833     2.976268755383
C      3.698762860923     0.267080510404     3.944534347222
H      4.776850591866     0.388457568910     3.703933915689
H      3.524943478862     0.672459151634     4.967823536800
H      3.460351633626    -0.821571493486     3.938346797856
Pd     1.660821412520     0.660257849621     0.299659249003
C     -0.922084804728    -0.758243425997     0.098295386925
O     -1.083090875857    -0.092435447292    -1.003722996265
O      0.196422481828    -0.907177368379     0.712818150545
C     -2.202191745908    -1.334277207132     0.749125757943
H     -2.017478642188    -1.405891330351     1.824146871610
C     -2.570553795601    -2.698805227696     0.209440120102
H     -3.487101233527    -3.060073940869     0.720003838839
H     -2.773360126483    -2.624320263943    -0.878802603565
H     -1.744518658577    -3.417217627277     0.388121787266
N     -3.319261465640    -0.423311744783     0.511046088935
C     -3.392901554257     0.728088583135     1.224069415771
O     -2.598147948289     1.047864043767     2.143808302634
C     -4.492087284487     1.642579996610     0.855698420985
H     -5.440016689574     1.090159858943     0.965744529783
H     -4.464850354585     2.514277570679     1.531604468252
H     -4.336809677619     1.956659843312    -0.191170657477
N      2.480419491573    -0.319109347845    -1.312866228110
C      3.728679875112    -0.872270867778    -1.217391035449
C      4.377356012667    -1.309230758727    -2.351811344952
C      3.771781863605    -1.212466051069    -3.585647343276
C      2.513307900774    -0.675844081542    -3.651450782448
C      1.871274881387    -0.242813698795    -2.470617826775
H      4.213319298853    -0.948374812099    -0.250720164540
H      5.363463691242    -1.737588472407    -2.270544318558
H      4.276819086801    -1.559227504173    -4.483569780629
H      1.981069016263    -0.585170159946    -4.578233406584
O      0.665945276842     0.228186957137    -2.647587434751
H     -0.079484923559     0.189426273381    -1.832352589626

