# STO-3G

title

0 1
C      0.469767637335     4.089157160426    -0.333908753946
C      1.494722569498     4.917083469786    -0.857887481401
C      1.247099144269     5.781181849226    -1.936102159613
C     -0.040202840690     5.834077211749    -2.505699704201
C     -1.066643088590     5.015807699273    -1.991106094776
C     -0.820775410219     4.146961692802    -0.917170145331
H     -2.963564085168    -0.732336344979     1.066513083117
H      2.488881907762     4.880326117870    -0.412998280773
H      2.044349232211     6.410603893022    -2.324328498394
H     -0.241489219350     6.503624268722    -3.339171110968
H     -2.058864646671     5.047759156517    -2.434175622173
H     -1.619544512882     3.503055085249    -0.563500217661
C      0.806044263849     3.245799170603     0.828751433930
H      2.322425214203     1.008166506557     1.075654837410
H      1.789661999219     3.450036924682     1.252191095725
C     -0.053181826875     2.407624528042     1.560043342969
H     -1.084916926074     2.286770021754     1.260904557544
C      0.258043930535     1.961495727641     2.927343884405
O      1.467106099849     1.807136539848     3.249583775125
O     -0.778362964186     1.505985924358     3.756224306854
C     -0.392626716848     1.124021454064     5.084670729286
H     -1.292644656040     0.799730666789     5.650660542939
H      0.328413478167     0.275237822471     5.060947679654
H      0.064387345564     1.983022865086     5.626621379423
Pd     1.125653293262     1.117358861298     0.108065709155
C     -1.599378416695     0.667625379668    -0.787827634882
O     -2.647303991360     1.288183990926    -0.427783109332
O     -0.530867140569     1.194743535521    -1.335758930445
C     -1.527398605847    -0.867595131105    -0.455968598110
H     -0.495798288197    -1.212924790285    -0.526771581117
C     -2.392551600906    -1.699569300692    -1.375890708038
H     -2.321180424056    -2.768521897898    -1.087547632446
H     -3.449537597559    -1.372698959826    -1.282400121025
H     -2.059342319701    -1.577861952207    -2.426898961257
N     -2.013441139082    -1.056906557636     0.912749324533
C     -1.214116976601    -1.286043636115     1.965177296665
O      0.045198251613    -1.380607421494     1.935843937629
C     -1.901813431076    -1.472007268069     3.256019103268
H     -2.599114541523    -2.319878837885     3.145573909446
H     -1.153178437628    -1.685534560203     4.037002210472
H     -2.458065968422    -0.546316116007     3.487520057059
N      2.027606734130    -0.326532262881    -1.045017685524
C      2.324973907988     0.050746202248    -2.328031868625
C      3.061824843826    -0.790807416576    -3.134200089877
C      3.490144903355    -2.013512109460    -2.664428664969
C      3.153143724101    -2.372331391821    -1.384776605348
C      2.387730784067    -1.491748382257    -0.592772453039
H      1.998860181440     1.016431268115    -2.698763794509
H      3.300922164283    -0.485781834367    -4.140541235502
H      4.070693077040    -2.680917476341    -3.296185913108
H      3.436001216105    -3.319066218017    -0.967772322027
O      2.078866495720    -1.968182886668     0.593172099048
H      1.300196438356    -1.560523683128     1.129996832584

