# STO-3G

title

0 1
C      0.431844814691     4.187957909353    -0.256576192832
C      1.360048245587     5.021151197665    -0.929144853050
C      0.942944381596     5.903690869454    -1.938546879202
C     -0.419578271545     5.972119450612    -2.287768594158
C     -1.351680098502     5.148120426824    -1.624252840684
C     -0.935787971289     4.260837457923    -0.619913240527
H     -2.910041229705    -1.234038594008     1.213904544039
H      2.414446798438     4.969634924004    -0.659952136938
H      1.670408052456     6.532297582531    -2.446452425446
H     -0.750511151068     6.654338848796    -3.067609956914
H     -2.403213429970     5.191463122097    -1.897386071046
H     -1.666375686871     3.614859590273    -0.144569951498
C      0.943774149216     3.330234130571     0.833167783884
H      2.521592429066     1.205235679931     0.892925370447
H      1.968150601821     3.558443438302     1.124655556087
C      0.192318546684     2.477766463535     1.664964050663
H     -0.865492058644     2.343953096000     1.485907360945
C      0.664920540051     2.013465357590     2.979165118121
O      1.907275051166     1.914932465078     3.173262148378
O     -0.257618895636     1.483495593722     3.895238458943
C      0.281966646653     1.080142957930     5.162263371229
H     -0.540345434289     0.707699317644     5.810894551151
H      1.024114037911     0.259429577567     5.034257808181
H      0.764849557227     1.940451096993     5.679236788751
Pd     1.196040852611     1.186748490568     0.130232496162
C     -1.670623560272     0.693411703827    -0.479689458723
O     -2.528183300792     1.326577612876     0.183959415535
O     -0.664828126066     1.271822964507    -1.139292837691
C     -1.674748714992    -0.870142780515    -0.464894182123
H     -0.686059552294    -1.235142443958    -0.752738762870
C     -2.713025832264    -1.454718224010    -1.395868605523
H     -2.682823311073    -2.562266160877    -1.335506859965
H     -3.721705633285    -1.106644930501    -1.089667873588
H     -2.512180052391    -1.138443316178    -2.440212990052
N     -1.955318147378    -1.336327806843     0.892341317774
C     -0.948263182667    -1.433364789444     1.801635225012
O      0.259121499974    -1.177402517990     1.557050391695
C     -1.317588204211    -1.895158847712     3.156574238276
H     -0.683607754352    -2.763645448985     3.399224300071
H     -1.127243344549    -1.063795982151     3.851553757466
H     -2.383368836978    -2.183571347832     3.192411478762
N      1.955225104693    -0.404511179045    -0.999056148227
C      2.834918784073    -1.278422661764    -0.416365641443
C      3.426182396368    -2.268102214367    -1.173738622235
C      3.123800969675    -2.403072996431    -2.511178771007
C      2.211422636841    -1.541351189620    -3.060692388940
C      1.619708615982    -0.547651405668    -2.253830097702
H      3.082107734812    -1.181041808736     0.634496306707
H      4.125130301889    -2.945110105096    -0.709614401792
H      3.585168254858    -3.183297743302    -3.111059039925
H      1.911262119771    -1.609138877894    -4.087890358826
O      0.704448286874     0.178277019219    -2.857933285593
H      0.066626463134     0.715669871921    -2.188073777391

