# STO-3G

title

0 1
C      0.022598456491     3.826406668950     0.035203256370
C      0.931854437094     4.876459683099     0.317041115956
C      0.817200748845     6.113887087211    -0.334571616427
C     -0.206566509124     6.326105422745    -1.281748145154
C     -1.114353613514     5.289154965898    -1.569711072848
C     -1.004004874376     4.049764447194    -0.916391763126
H     -4.090898852148    -0.604541769954     0.647576539420
H      1.726240524311     4.735133245006     1.046156589562
H      1.518201979137     6.913557302308    -0.106125838358
H     -0.293294818999     7.286214503141    -1.785518636790
H     -1.904442684558     5.444060158022    -2.300635221511
H     -1.691681529124     3.238737349392    -1.146291673123
C      0.071918564925     2.506070294472     0.698984166482
H      2.776358317788     1.739950784187     0.041677136068
H     -0.822296077114     1.907958582994     0.573813548712
C      1.026485322690     2.092296130555     1.630566950731
H      1.811760996113     2.755743106562     1.952894614522
C      0.955841613439     0.824373326203     2.359503685146
O      0.998810158674    -0.203543094287     1.627986998185
O      1.538467427343     0.786305385061     3.634827263977
C      1.409111046345    -0.465845044318     4.322164905744
H      1.859010452378    -0.378068227974     5.334436524029
H      0.335079732977    -0.738915322017     4.443164344047
H      1.939601947194    -1.279002776101     3.776666720613
Pd     1.487401356184     1.061143058435    -0.410848608781
C     -1.549448977387     0.014491329354    -0.652594462187
O     -2.283608626323     0.987895674336    -0.941597952955
O     -0.290062536709    -0.121244973306    -1.057373215494
C     -2.059040328931    -1.102455323614     0.314674964613
H     -1.239881817413    -1.355975127431     0.993870898215
C     -2.493292668720    -2.354807346051    -0.416206979492
H     -2.842204079387    -3.108217406821     0.319917387833
H     -3.330227718151    -2.111040462830    -1.102442781968
H     -1.646823952077    -2.777101465715    -0.995860039406
N     -3.186407336993    -0.609523339885     1.100387357139
C     -2.959904746141     0.246807319713     2.134271171758
O     -1.821106456840     0.598458649015     2.530439691208
C     -4.146570075799     0.788424894226     2.831292485559
H     -4.049335766709     0.535610272137     3.899567075614
H     -4.134982875978     1.881906440584     2.689691754782
H     -5.075459454556     0.356754679802     2.419411820813
N      2.655843585907    -0.133855657144    -1.665889780878
C      3.812985366021     0.353910451261    -2.211941548378
C      4.709368863090    -0.502347201698    -2.814290508649
C      4.445401657432    -1.852127232332    -2.891422937053
C      3.271100735303    -2.314671052586    -2.360504707405
C      2.373891189905    -1.410809502778    -1.752248288050
H      4.031538485457     1.414179856894    -2.158829737318
H      5.620951074509    -0.109695888402    -3.235697214006
H      5.146402277409    -2.531365512832    -3.369811356635
H      2.996744558886    -3.350428704635    -2.403249360150
O      1.264391052744    -1.958642242301    -1.317242407211
H      0.497898780686    -1.241660086344    -1.070247965027

