# STO-3G

title

0 1
C      0.383246641036     3.627826587970     0.451611966416
C      0.850669453992     4.954162327836     0.286214846548
C      0.127982391428     5.888127871069    -0.475210296240
C     -1.071551215678     5.503214258859    -1.103460741239
C     -1.533506496263     4.178956625538    -0.964801603114
C     -0.816858233574     3.249051651382    -0.194915678246
H     -3.570455810027    -0.143681426791    -0.407689585163
H      1.783105849708     5.255273060012     0.761214514179
H      0.501158726009     6.903512715334    -0.585102973624
H     -1.628450787900     6.217731035127    -1.705013753231
H     -2.441627566334     3.867010443476    -1.475512102502
H     -1.163738125839     2.223712899903    -0.140081380775
C      1.186466457875     2.717950185207     1.303940131750
H      2.878616602235     1.759426888827    -0.087820500818
H      2.181041638742     3.099106395292     1.526922896992
C      0.719596378510     1.609659156392     2.012034465962
H     -0.325240658008     1.339326672649     2.001756174083
C      1.548220887411     0.873092733661     2.974613419955
O      2.774843351607     0.751783895968     2.695977956005
O      0.928997399926     0.018363280992     3.899298569287
C      1.803105765281    -0.798392474843     4.689710356024
H      1.194996012221    -1.410573273584     5.390542027151
H      2.387456856465    -1.492322582886     4.044214478060
H      2.497891537948    -0.169718208498     5.290989831036
Pd     1.802848746897     0.702238117165     0.192887942001
C     -0.797246482950    -0.694349817421     0.018365029625
O     -0.944286498909    -0.011243661181    -1.078728751912
O      0.325788349939    -0.886898549989     0.611165002751
C     -2.096189735583    -1.200716976771     0.688933963972
H     -1.891436319310    -1.321961977581     1.755528861230
C     -2.577988424057    -2.514616970152     0.114330048221
H     -3.503772637854    -2.827535358119     0.639999229922
H     -2.805953973169    -2.386363020847    -0.963990118270
H     -1.801887958842    -3.296686298104     0.242255120466
N     -3.153317747841    -0.204233444254     0.513627999378
C     -3.183691536687     0.881636544055     1.333186023709
O     -2.374314626956     1.075859728092     2.273745300004
C     -4.238598251966     1.886967894259     1.085029605891
H     -4.829133450073     1.979983684948     2.011179590080
H     -3.734803927028     2.840867819407     0.855955778316
H     -4.886478568205     1.576271465742     0.247044453090
N      2.651281009356    -0.291864078263    -1.390420045681
C      3.914157351674    -0.805906053770    -1.270710521583
C      4.569160073305    -1.288528331228    -2.382984364428
C      3.957274482982    -1.272478144757    -3.617267537494
C      2.685779015222    -0.770484626249    -3.705745782689
C      2.038525219603    -0.288960375750    -2.546847000788
H      4.403206414577    -0.818007603782    -0.303239589212
H      5.566374846183    -1.685977006910    -2.282973205844
H      4.467995055231    -1.653663377627    -4.497801614681
H      2.150002606258    -0.739744516626    -4.634243746694
O      0.821411776166     0.145146605749    -2.748735517249
H      0.090749478002     0.177589307160    -1.938073734230

