# STO-3G

title

0 1
C      0.078616438565     3.587593423053    -0.017228476400
C     -1.270110709016     3.715139830032     0.388830571541
C     -2.192646597226     4.397279388665    -0.424322580314
C     -1.789281225046     4.954755664638    -1.652928095267
C     -0.446490229813     4.834602285248    -2.062968883736
C      0.478354461181     4.165810586986    -1.245986884544
H     -3.532328104808    -0.488539643037     0.007548004264
H     -1.590958032915     3.300320063649     1.339200617370
H     -3.223285636736     4.507160223682    -0.094670106853
H     -2.507027579311     5.479536296256    -2.279167860919
H     -0.124697859164     5.259299512516    -3.010757824743
H      1.513129779831     4.067089281828    -1.569234612965
C      1.107841963010     2.956083551780     0.846545922785
H      2.862163439535     1.830814196090    -0.427938582012
H      2.089087984712     3.418256698617     0.767568881713
C      0.875018480802     2.021521628923     1.853825669236
H     -0.121231523070     1.653060274866     2.051177337781
C      1.910652433193     1.584925102824     2.796760708717
O      3.085131943159     1.474931515949     2.342867457420
O      1.528432363573     0.933702200984     3.979396808364
C      2.591332418553     0.388840213890     4.772945175235
H      2.162087889206    -0.079665022373     5.685174793897
H      3.143346137330    -0.397178255822     4.209774961539
H      3.297751627769     1.187763118148     5.092839864925
Pd     1.834379391546     0.822560859106     0.106747754677
C     -0.684770432641    -0.713518153656     0.336212206943
O     -0.934002585048    -0.279713462350    -0.861647223966
O      0.466697210821    -0.687445148817     0.904704145692
C     -1.897190262567    -1.208639807283     1.157528709313
H     -1.632207754111    -1.129963616601     2.214729480529
C     -2.279506992699    -2.636674049733     0.836048797481
H     -3.147086544324    -2.933983046726     1.460653951416
H     -2.567074633490    -2.710939614480    -0.233124446352
H     -1.428455645252    -3.317313695416     1.042666870649
N     -3.046945432671    -0.349053904545     0.886199453898
C     -3.128162760101     0.864366442447     1.487589323736
O     -2.302855737634     1.300591079383     2.329591773123
C     -4.283479002544     1.695730283536     1.094650728136
H     -5.199823295033     1.121581447754     1.310191255030
H     -4.258951631312     2.630573165426     1.679978067946
H     -4.196606645766     1.909348979711     0.014914910518
N      2.631427597847    -0.413424057021    -1.324863075486
C      3.918051530086    -0.861739492208    -1.195735804575
C      4.537105791299    -1.490107532673    -2.254490418317
C      3.865445071372    -1.687755084477    -3.441133530124
C      2.571952078078    -1.247041591011    -3.537261038111
C      1.962167477850    -0.611347921232    -2.433430671302
H      4.453711067647    -0.706479686097    -0.266037872508
H      5.553142977971    -1.834908884055    -2.148612796864
H      4.347496946339    -2.185972379271    -4.278328178080
H      1.990129021565    -1.380833337007    -4.428196108553
O      0.721525163144    -0.252987140340    -2.630027259937
H      0.018586617557    -0.144812371998    -1.783442417964

