# STO-3G

title

0 1
C     -0.484265572197     3.452105045811     1.235720063293
C     -0.648426079102     4.681804889159     0.550463065241
C     -1.860196703864     5.393758827527     0.612903504364
C     -2.938049307809     4.880840568325     1.359678493117
C     -2.794141005406     3.644176737792     2.024990884786
C     -1.584766222036     2.932542001084     1.963958262581
H     -3.451965744564     0.883703953920    -0.299529108625
H      0.186157870622     5.091107752778    -0.016704123995
H     -1.958229521847     6.343212361314     0.091760826005
H     -3.873002230714     5.432883613957     1.423934757672
H     -3.625097244718     3.239908108610     2.599591211070
H     -1.499328857519     1.964680127322     2.446014417636
C      0.871083638669     2.849204853371     1.247415796238
H      2.367040994665     1.241824993287    -0.236110664100
H      1.590865092763     3.377627040253     0.624053283497
C      1.353373705462     1.963929657241     2.230979945114
H      0.659517306296     1.523367232123     2.932082674346
C      2.773166577317     1.810369180354     2.581623477065
O      3.079169201100     1.009516321329     3.500587005341
O      3.739107349441     2.245670229320     1.656045723003
C      5.105945695492     1.992412746051     2.013853732906
H      5.777254954060     2.397247237414     1.225568829387
H      5.362774404417     2.492041217686     2.976007758307
H      5.298473780868     0.898743440658     2.105049133572
Pd     1.073579786123     0.729285149686     0.426687794246
C     -1.257792458620    -1.085735212150     0.854574939844
O     -0.933852668720    -2.245801121396     1.218844776136
O     -0.759410864204     0.045763829525     1.312107270007
C     -2.396866557607    -0.934366820355    -0.226460024416
H     -3.322277571783    -1.256090570732     0.269675009098
C     -2.189565746376    -1.832072243435    -1.430691112972
H     -3.026019758617    -1.694045338262    -2.146492336934
H     -1.237555910716    -1.581499043077    -1.935417723355
H     -2.159026456370    -2.894831920255    -1.112250342468
N     -2.627345814256     0.444136738219    -0.689114416639
C     -1.805167274716     1.223921174245    -1.409623960716
O     -0.645199070666     0.927409405174    -1.799223458031
C     -2.348803986455     2.541590128844    -1.792967955807
H     -2.621656563478     3.075869761689    -0.868601002697
H     -1.581137680498     3.106779932804    -2.347212774092
H     -3.242800049890     2.376120453321    -2.417966325044
N      1.567670306775    -1.117197884876    -0.442433781387
C      1.934523228903    -2.113818429486     0.424884733346
C      2.570980306248    -3.239677106416    -0.057080616846
C      2.806008057458    -3.388771914743    -1.406630206491
C      2.397647192745    -2.388916965896    -2.251538909250
C      1.751700041531    -1.255430058753    -1.718897112467
H      1.758117125233    -1.999958545216     1.488805125307
H      2.860987153689    -4.016611874926     0.631825095164
H      3.292726562352    -4.280946933530    -1.791812520003
H      2.527069200014    -2.452688956938    -3.313693811498
O      1.350043032668    -0.376339208622    -2.621601810578
H      0.630188975692     0.259353443615    -2.294427717513

