# STO-3G

title

0 1
C      0.300956750371     4.024762576150    -0.100324665572
C      0.883409182682     5.299355260080    -0.302683084898
C      0.333986942504     6.203573579814    -1.226903493419
C     -0.801555499926     5.838841696366    -1.975132522582
C     -1.373236607871     4.561570456724    -1.800106289462
C     -0.828826406065     3.657867348591    -0.874824296626
H     -2.196614363810     0.662288326342     0.497625191246
H      1.763558041543     5.584049759224     0.272042107782
H      0.788207196673     7.181624583224    -1.364804015024
H     -1.227934738357     6.534291268632    -2.694065209075
H     -2.233721557828     4.268233724184    -2.396284903903
H     -1.236220510329     2.654277623847    -0.795961135821
C      0.899094057508     3.141812236159     0.923988252936
H      2.873318803665     1.642961121218     0.430073050981
H      1.867977185338     3.466509932775     1.298485967118
C      0.242524121570     2.101224973407     1.586669594265
H     -0.785572086121     1.879765186936     1.369155149703
C      0.804464549234     1.361068266211     2.719798887614
O      2.030508269087     1.066944776939     2.655077088496
O     -0.070303762577     0.642130076172     3.543972831214
C      0.515595599308    -0.355318365746     4.391217332417
H     -0.289805500759    -0.854167676520     4.975306429430
H      1.025010171490    -1.139835465631     3.787211663032
H      1.237337389646     0.100516930664     5.105586025760
Pd     1.486002941351     1.133906487740    -0.069832441704
C     -0.699661294259    -0.841055651929    -0.810657134711
O     -0.108416433256    -1.635754183641    -1.581644656009
O     -0.441844324185     0.468949780129    -0.705585499319
C     -1.826924242724    -1.350984796637     0.134908111911
H     -1.398046448136    -2.110964512525     0.799408369318
C     -2.980189988357    -1.971531894827    -0.623797159817
H     -3.726283945476    -2.366742237307     0.096529755408
H     -3.464234184124    -1.196466716141    -1.251812096334
H     -2.617668049006    -2.802019801583    -1.264304820136
N     -2.346681829598    -0.242163711821     0.931814163359
C     -2.711777192167    -0.396028864867     2.231243284161
O     -2.656648666524    -1.478815413870     2.864914497016
C     -3.267688210470     0.800006674159     2.906027620131
H     -3.291736260888     1.660386036224     2.216094468189
H     -4.290080356330     0.544350255602     3.228217239456
H     -2.636504065670     1.020655966089     3.782769968860
N      2.532963659000    -0.140479639015    -1.304160466630
C      2.153523082904    -0.311439981955    -2.610801633285
C      2.884253729219    -1.149449828416    -3.429723979462
C      3.960632286288    -1.851800317536    -2.932268482532
C      4.301060314107    -1.673175648128    -1.615235648415
C      3.540437506275    -0.794576952087    -0.822430941272
H      1.302518155203     0.232325965505    -3.005678079839
H      2.579778742904    -1.281058773704    -4.455212818229
H      4.522647558118    -2.531904917117    -3.566949308470
H      5.119713661520    -2.198030437511    -1.164209829053
O      3.948952570359    -0.704497729726     0.441940630788
H      3.410557686878    -0.030020979922     0.941275508371

