# STO-3G

title

0 1
C      0.737988939243     3.342579037564     0.207268190746
C      1.761231837772     3.783016287207    -0.671484955356
C      1.488968926736     4.691267898188    -1.707820454384
C      0.181828169532     5.185948863388    -1.884487819784
C     -0.839421251884     4.770858553739    -1.006378567469
C     -0.569833560401     3.862614369893     0.032480712070
H     -1.976389742326     1.124377951382    -0.463169674872
H      2.775717675995     3.408792277228    -0.536320494668
H      2.290622922615     5.019837232337    -2.365389780454
H     -0.034284344815     5.894232333899    -2.680856367376
H     -1.846687263081     5.165285536593    -1.121714414218
H     -1.374771372640     3.574034528772     0.702204203583
C      1.108425520813     2.364116094447     1.260325732849
H      1.735565311097     0.033294498500     1.191357323941
H      2.184875108048     2.219895651311     1.341335181572
C      0.296209427333     1.917296538267     2.349612785226
H     -0.725773481691     2.256031661644     2.420308467403
C      0.833589522173     1.371877534748     3.604285896577
O      0.018242278885     1.026186720481     4.496761654328
O      2.152062514188     0.882858874017     3.605228772543
C      2.585794648622     0.256606994749     4.821748338932
H      3.643410631724    -0.068989124193     4.714746589601
H      2.528015908566     0.968292331895     5.676940178792
H      1.968782697246    -0.642913594139     5.049138830159
Pd     0.332378830514     0.388028931585     0.761078044494
C     -1.436291381623    -2.136943556611     0.313927346820
O     -1.842617357182    -3.314275344389     0.227408014025
O     -0.273121223517    -1.752700800289     0.834655423176
C     -2.359291262580    -1.001582793166    -0.259196678228
H     -3.382805310211    -1.271490082843     0.030402555387
C     -2.323532626751    -0.983514333084    -1.774146563594
H     -3.065701158489    -0.252489458659    -2.157715801189
H     -1.317963836617    -0.686752885399    -2.126781566748
H     -2.571829229564    -1.987602855346    -2.178223308084
N     -2.032550846444     0.376104522741     0.230650892464
C     -2.580446994208     0.876986259361     1.413104363929
O     -2.800826692111     2.093858079268     1.574440374032
C     -2.788973622260    -0.058426538127     2.539875959171
H     -1.841901155584    -0.578881682991     2.758243975765
H     -3.086968420503     0.533095661045     3.425711143982
H     -3.595488390385    -0.767741530092     2.291984143100
N      1.085628354499    -0.123287602804    -1.301635748242
C      1.166358522024     0.850459029544    -2.261225790998
C      2.041940884829     0.701969375233    -3.317655046109
C      2.829834098878    -0.424187792046    -3.424851774245
C      2.718920131926    -1.390335886367    -2.458309088249
C      1.810622851433    -1.203703333911    -1.396273146650
H      0.535718972604     1.729130894713    -2.194380932776
H      2.099296758417     1.475495052527    -4.066534981548
H      3.517125752348    -0.545569617663    -4.258084907319
H      3.293215180239    -2.295371159059    -2.487765772006
O      1.776026699450    -2.192026553909    -0.522913891228
H      0.981310761095    -2.138926199267     0.153563019568

