# STO-3G

title

0 1
C      0.116492699113     3.757110732354     0.102735922965
C      0.820419631388     4.678022950119    -0.711614348968
C      0.145137541510     5.474414319526    -1.650038250474
C     -1.253708370601     5.374680544291    -1.781110314736
C     -1.968350150700     4.478637143863    -0.961316668623
C     -1.290045291627     3.679548061037    -0.028619421729
H     -2.107131066964     0.939506830287     0.245853766674
H      1.902148365332     4.757039928092    -0.614412879267
H      0.702694187406     6.170530649188    -2.271579109882
H     -1.780468978142     5.992950946780    -2.503736948186
H     -3.049978769235     4.411271085073    -1.046317798325
H     -1.861096796210     3.023011936385     0.620005971862
C      0.887132179301     2.954380780107     1.076928851943
H      3.029949676281     1.616845775141     0.533616520752
H      1.851613329250     3.378432609286     1.349567900078
C      0.422547625497     1.844386830123     1.790104091142
H     -0.562874738301     1.449289392982     1.619220269301
C      1.138373677968     1.225102491886     2.909793041036
O      2.396278697464     1.163052741222     2.822978283766
O      0.430461564593     0.358128389178     3.753692171689
C      1.209454316593    -0.377438254598     4.707547180727
H      0.531824527915    -1.010837826224     5.321423361118
H      1.934389829215    -1.050303750118     4.195690298199
H      1.754968926582     0.310751515602     5.392107135228
Pd     1.654202251269     1.056670901116     0.028013924575
C     -0.614797627746    -0.842004920246    -0.680875510825
O      0.084267028211    -1.778304595785    -1.140697712252
O     -0.253548241563     0.442767480170    -0.625803701321
C     -2.034189327428    -1.113106461639    -0.108728080106
H     -1.973704375889    -1.958554047616     0.585147814890
C     -3.034765081014    -1.447661084782    -1.194248402729
H     -4.014929469352    -1.685734133151    -0.731328680474
H     -3.157337683105    -0.569951007032    -1.860974744775
H     -2.686762445366    -2.322360758968    -1.781604596083
N     -2.505124266127     0.074866384639     0.601653551154
C     -3.236704618241    -0.007314754159     1.740762908720
O     -3.610848344114    -1.075582633587     2.280572331107
C     -3.621923284803     1.287870724509     2.343357163667
H     -4.163954775287     1.868116790713     1.577845010545
H     -4.274824313379     1.086951750881     3.210431506966
H     -2.708260448205     1.811284343184     2.667325460454
N      2.721128313474    -0.193483807291    -1.215447395561
C      2.259111668065    -0.486012077421    -2.472813493611
C      2.977367033673    -1.343796835526    -3.282243022114
C      4.129157769199    -1.943254784765    -2.820752485197
C      4.553469950551    -1.644779215980    -1.550787530199
C      3.799376219971    -0.753161651840    -0.766062996264
H      1.353089809272    -0.019332687513    -2.842497841311
H      2.608532719414    -1.569463647771    -4.269524607106
H      4.684344578650    -2.637340275760    -3.446263281761
H      5.432979397763    -2.087969388674    -1.127542476453
O      4.288596301356    -0.550977714450     0.455028578355
H      3.746702542954     0.135034642599     0.941259878354

