# STO-3G

title

0 1
C      0.303425655992     3.934412891486     0.116853055439
C     -1.083986402587     4.061419215555     0.368721364035
C     -1.852917763732     4.981670863904    -0.364558754536
C     -1.258713267243     5.783268681876    -1.359559295544
C      0.122797153752     5.668646656684    -1.611164048218
C      0.894978574377     4.758303817717    -0.871939142866
H     -3.327308065754    -0.661561152117    -0.128253902721
H     -1.554479315766     3.460757925831     1.142299409541
H     -2.914374390581     5.085696115275    -0.150751562323
H     -1.859908798806     6.494695384338    -1.921199437280
H      0.593023036340     6.290321592104    -2.369397933160
H      1.963938035447     4.675474363982    -1.062843235174
C      1.181806081966     3.026327235621     0.891618405801
H      2.915826319910     1.589612305691    -0.243879496840
H      2.227644871820     3.326142029035     0.910397315184
C      0.763230991087     1.998105955302     1.737614479079
H     -0.285430611912     1.769829007065     1.858067297875
C      1.666017619528     1.271552407748     2.638655921495
O      2.858730423350     1.115022708488     2.256491055258
O      1.108902326997     0.449359724021     3.629992728816
C      2.005888229276    -0.471740425984     4.265383041769
H      1.450354820107    -1.052437506446     5.033073651326
H      2.420444223089    -1.192942463058     3.524133565947
H      2.838603057629     0.067530982571     4.770601017122
Pd     1.487762570130     1.017784040455    -0.230579862200
C     -0.536862835976    -0.886180077919     0.746114784425
O      0.481045484025    -1.529521456882     1.216620270237
O     -0.473240800297     0.046654397425    -0.142334078845
C     -1.922547016538    -1.196815204061     1.364265022813
H     -1.838931370613    -0.953927859732     2.430109918365
C     -2.322219290639    -2.649995506468     1.225751930865
H     -3.306281226059    -2.808874901078     1.713388106628
H     -2.408459017967    -2.910960158724     0.151680595646
H     -1.567496512166    -3.304457364487     1.708877525460
N     -2.966227840564    -0.369673405961     0.771186625096
C     -3.089228398686     0.931224498970     1.137828022901
O     -2.388563793779     1.488638720421     2.020028176509
C     -4.131382030641     1.724967245636     0.450307613524
H     -4.747924823156     1.076420830935    -0.194784438407
H     -4.757700641261     2.189844701824     1.229066537027
H     -3.623192283816     2.495832691429    -0.152115458787
N      2.207027096607    -0.268475181068    -1.668931105306
C      2.404479653452     0.181716886499    -2.945890572773
C      3.122958138614    -0.581328796851    -3.840897589386
C      3.628367805226    -1.807615197501    -3.467918122386
C      3.396623799808    -2.245231179886    -2.190444104589
C      2.654948450441    -1.441466977768    -1.297363172927
H      2.010786490058     1.146263259943    -3.245794268133
H      3.280498795673    -0.217848731537    -4.843660669607
H      4.190393794901    -2.416202668598    -4.171677042231
H      3.749065105361    -3.196514553193    -1.843191006287
O      2.468021270865    -1.973255191398    -0.118554602632
H      1.638925287018    -1.649290480373     0.515875268955

