# STO-3G

title

0 1
C      0.529017736986     4.084480593468    -0.136323063647
C      1.476677799925     5.028381328125    -0.605642846062
C      1.168300609765     5.898779755102    -1.663844509941
C     -0.098191997638     5.834805143306    -2.275859169025
C     -1.043468969772     4.890223586520    -1.825568489499
C     -0.737874974702     4.020215771168    -0.768260804036
H     -2.974816474580    -0.829974515053     0.868920500362
H      2.456863682200     5.081022572378    -0.132800516731
H      1.906522118972     6.619620771202    -2.007348506119
H     -0.342652808518     6.503865479164    -3.097828322838
H     -2.013097200348     4.821267201005    -2.312602470923
H     -1.446904159304     3.253069083932    -0.478869725863
C      0.920319100117     3.243210478770     1.014855603210
H      2.386721005158     1.099171465387     0.970600013401
H      1.941204122887     3.418094396917     1.352699122771
C      0.085549489852     2.471404757900     1.848315750236
H     -0.973482961158     2.408446185728     1.651417221628
C      0.511089809768     2.007141709425     3.176907819437
O      1.730626329427     1.745090251552     3.357150899304
O     -0.462156830361     1.619478622288     4.110912274872
C      0.033921844283     1.177558400975     5.383052541813
H     -0.822223938043     0.910521761638     6.039949287537
H      0.678120663012     0.275806351334     5.268542836361
H      0.614931317517     1.985110874496     5.883901739128
Pd     0.982424040974     1.104045686047     0.336988992063
C     -1.227788347938     0.003341970328    -1.324102420042
O     -1.089794369180     0.050318922525    -2.572519794920
O     -1.035660069982     0.997138690569    -0.474458888488
C     -1.580274758794    -1.373546645524    -0.630355993968
H     -0.655981863385    -1.963496122992    -0.613188857525
C     -2.636266409380    -2.162871628973    -1.372634346928
H     -2.828956589973    -3.118916314160    -0.843584714592
H     -3.575763457616    -1.575419098145    -1.413074222192
H     -2.294939821813    -2.380133372598    -2.406058267717
N     -2.036085916310    -1.191010941926     0.748570646674
C     -1.225822714206    -1.207336820368     1.816927784757
O      0.024954490554    -1.374976540635     1.800102306388
C     -1.889023007854    -1.039417421073     3.123562260187
H     -2.647370549722    -1.834888279334     3.221813967690
H     -1.136327424022    -1.127045343597     3.924435440994
H     -2.366911598080    -0.044115061016     3.146714645564
N      1.769342669643    -0.194939401978    -1.080927319042
C      1.942754492311     0.314014080880    -2.342012335846
C      2.668440310426    -0.400103565127    -3.272774851281
C      3.191690024864    -1.634750198311    -2.956582456155
C      2.972929589143    -2.130313209566    -1.696798661952
C      2.225707889879    -1.371726591971    -0.773212224755
H      1.532365561969     1.285534422347    -2.595838039391
H      2.803108689090     0.007448856397    -4.261738425633
H      3.753209794883    -2.205999132855    -3.691164508597
H      3.333340665245    -3.093700659707    -1.394689745814
O      2.031954134608    -1.966932894936     0.387268231918
H      1.274810727909    -1.613529837949     0.983222918316

