# STO-3G

title

0 1
C      0.383263812948     4.119332699630    -0.194518991629
C      1.244604671447     5.132973940442    -0.683331332758
C      0.856495859535     5.958030271679    -1.751646484984
C     -0.402147775026     5.775148736107    -2.355987369405
C     -1.260147570891     4.758996346389    -1.887620017441
C     -0.876344022005     3.935870891473    -0.818159723359
H     -0.084198919331    -2.203637646169     0.076260442896
H      2.219311291203     5.275911187491    -0.218049780106
H      1.528020465170     6.734546287343    -2.110276668852
H     -0.706324209385     6.407458283649    -3.187068120052
H     -2.221173627705     4.597454768075    -2.369428434492
H     -1.517957813945     3.117590252909    -0.510030960096
C      0.850927329006     3.325642147090     0.962569856045
H      2.437138623894     1.301207347471     0.866112278420
H      1.869462410866     3.557927912708     1.272072928311
C      0.076870469765     2.522134373435     1.819632369418
H     -0.979033698743     2.395534973332     1.643711980139
C      0.560966185400     2.039576637826     3.121441151492
O      1.799666376761     1.859811278767     3.268599247995
O     -0.367495139402     1.532779317920     4.044512781137
C      0.188056058755     0.867828757092     5.188441940432
H     -0.634354843827     0.522164522486     5.851044784354
H      0.778457422712    -0.025126797908     4.876926910795
H      0.838369449279     1.557399783829     5.773242370874
Pd     1.007913488873     1.173620659059     0.307903855952
C     -1.350328301207     0.021076250221    -1.286827589557
O     -1.254815872896     0.237283077004    -2.522304701391
O     -1.062893663309     0.863259332803    -0.311692539275
C     -1.781180081676    -1.419402398221    -0.801156081666
H     -1.518168129582    -2.121187705062    -1.600182798676
C     -3.265128297233    -1.560556147353    -0.534411462724
H     -3.463141818736    -2.528553226570    -0.029289898490
H     -3.637181825398    -0.726621920491     0.087899840664
H     -3.815807796956    -1.541392019142    -1.497849218080
N     -0.973462891447    -1.802537714852     0.373709514499
C     -0.838611891922    -1.248255427497     1.598397389167
O      0.283761894362    -1.201721655194     2.198293827369
C     -2.032223659656    -0.772372832510     2.313085374015
H     -2.781275792185    -1.581406661581     2.302657838684
H     -1.752811687181    -0.547694368753     3.356441683122
H     -2.402431814744     0.143112160709     1.825290258684
N      1.831989638602    -0.274519768158    -0.932319767331
C      1.939238332513     0.035524280587    -2.263143258528
C      2.763362392324    -0.714542715430    -3.075990566348
C      3.459195531662    -1.789885149080    -2.567983550939
C      3.312333921715    -2.090494719701    -1.238667348255
C      2.458940539554    -1.303478927274    -0.437690657968
H      1.399548395110     0.884708071072    -2.667564705681
H      2.846308151465    -0.461724753383    -4.120711226067
H      4.100951389614    -2.390145109105    -3.207521033977
H      3.805986723820    -2.927834077689    -0.786562350027
O      2.357676847126    -1.716633803390     0.810177493269
H      1.581135112086    -1.369998316956     1.416352407568

