# STO-3G

title

0 1
C      0.409192306658     4.071801313791    -0.342546122134
C      1.423893550028     4.890709685876    -0.898850422577
C      1.158645513720     5.727523830195    -1.994676663233
C     -0.135823340881     5.762329895063    -2.548762876019
C     -1.152713105756     4.953788957993    -2.000178513822
C     -0.889723293084     4.111619722330    -0.908895972686
H     -0.067811156991    -1.441245524839    -0.292647605733
H      2.424032739708     4.867978648816    -0.466575849532
H      1.948597803610     6.350068593265    -2.408142032112
H     -0.350292235818     6.411369947112    -3.395016182777
H     -2.151901758199     4.975847966013    -2.428279528006
H     -1.680480942681     3.476081643459    -0.522429365438
C      0.763305640965     3.251070484207     0.833333770667
H      2.321639012754     1.130608520897     1.019144635280
H      1.748475199455     3.471122430294     1.244733173875
C     -0.088838219251     2.416758495755     1.580558581121
H     -1.119791945667     2.285515407937     1.284881307541
C      0.240808883195     1.948589221776     2.935895948127
O      1.455112704967     1.852552557048     3.259227455843
O     -0.766377146620     1.353661550428     3.712217117758
C     -0.349690378270     0.836606035457     4.984460479907
H     -1.228448677310     0.412643953204     5.516548367057
H      0.403379674208     0.025130811389     4.854759819568
H      0.081901623546     1.643891520360     5.618986384145
Pd     1.059210394791     1.123555808690     0.138353222707
C     -1.872567303403     0.630790742766    -0.634103109475
O     -2.731254176726     1.406302952061    -0.127245430261
O     -0.707417407476     0.982588501458    -1.147447000149
C     -2.040923329275    -0.934235603977    -0.612681169983
H     -1.822866757098    -1.302845628635    -1.621555530880
C     -3.400545163450    -1.454030745786    -0.197633001066
H     -3.343021763268    -2.544474061606    -0.002462950669
H     -3.774276142375    -0.920159490729     0.695979555532
H     -4.125272829738    -1.277306566987    -1.018902142123
N     -0.940429812536    -1.455093017341     0.239155613494
C     -0.689306316010    -1.466802465084     1.561679255529
O      0.491247619975    -1.521000441250     2.032371695033
C     -1.805826630776    -1.441207525983     2.518364385825
H     -2.464014107100    -2.299040715942     2.306545813662
H     -1.397194668274    -1.538007413338     3.538689967146
H     -2.329245865665    -0.474121017932     2.424983685007
N      2.008308800359    -0.346436043316    -0.985253409359
C      2.099750123718    -0.059842558304    -2.321697217843
C      3.021034345116    -0.724757607901    -3.104212560946
C      3.836605425529    -1.692277900793    -2.558343008418
C      3.705195693291    -1.978159031619    -1.224354053503
C      2.747435725391    -1.284919862932    -0.454735210945
H      1.468358904451     0.706897724588    -2.756439547596
H      3.094948601304    -0.486085523193    -4.152823684863
H      4.559389799553    -2.222563095205    -3.172848591347
H      4.290781078358    -2.737111938062    -0.744461429806
O      2.669794882838    -1.674914356604     0.794837493000
H      1.796320067338    -1.466588097788     1.335284342174

