# STO-3G

title

0 1
C      0.125146856749     3.763454569661     0.164098503855
C     -1.242266390626     4.096764049043     0.007841829286
C     -1.629638252344     5.197157793494    -0.776397641031
C     -0.656507984727     5.982939480616    -1.421542704097
C      0.709216052219     5.661811737504    -1.271017199705
C      1.097380801399     4.565342900001    -0.486767857631
H     -3.219761718257    -0.993750132999     0.200362392134
H     -1.985347678787     3.499103105295     0.529171177644
H     -2.683829251897     5.444337085445    -0.877987317220
H     -0.953387658221     6.834709523792    -2.029285926935
H      1.465315957835     6.267555796869    -1.765490685175
H      2.153887092204     4.326919741621    -0.394569848332
C      0.457664685145     2.610057546746     1.031730367544
H      2.787615360840     1.772777470715    -0.593026482908
H     -0.407493833032     2.067597194320     1.410780334425
C      1.725077031675     2.320792923091     1.544906616018
H      2.564059577170     2.957016469442     1.310749234271
C      1.988020432273     1.384288116164     2.650170992786
O      3.189339074980     1.140561572633     2.934845355106
O      0.942711389169     0.607809030168     3.175141865203
C      1.316345538401    -0.374553780691     4.151456334238
H      0.407049762267    -0.908140523762     4.502457430351
H      2.007779492817    -1.127844074102     3.709210636342
H      1.799483376852     0.104815748958     5.032698911308
Pd     1.456991190699     1.049691787214    -0.343795141238
C     -0.398812038123    -0.944211631998     0.882195307991
O      0.637712312987    -1.651460379041     1.196814957092
O     -0.409204816999    -0.017867886057    -0.013920892938
C     -1.710819156414    -1.152311024305     1.681591789186
H     -1.564211158120    -0.655583738158     2.648771861199
C     -2.048878629801    -2.607121025563     1.923465653887
H     -2.986696243923    -2.674090588656     2.512787851097
H     -2.199011359590    -3.118894795575     0.951609627649
H     -1.230963265636    -3.104756578773     2.484070701579
N     -2.837517509386    -0.518730652542     1.008653109392
C     -3.088926836758     0.805242947719     1.164073401880
O     -2.464101654337     1.572590802806     1.937179111133
C     -4.201549453288     1.340061397472     0.351524308162
H     -5.106923986222     0.760969906336     0.598673716050
H     -4.341352697898     2.405320037855     0.602873088388
H     -3.934972898237     1.222585699676    -0.712812939966
N      2.070735562953    -0.207832755322    -1.851817111411
C      2.166510766351     0.273550903526    -3.129572660139
C      2.803955752881    -0.468784134407    -4.099555073235
C      3.330015108285    -1.706340754339    -3.801231499263
C      3.201822178301    -2.175585100828    -2.520735087077
C      2.539445723791    -1.394224623866    -1.548241563328
H      1.756171680865     1.247262889318    -3.372186708346
H      2.880766391445    -0.080314690436    -5.102457113477
H      3.828606440634    -2.298730205959    -4.564143066074
H      3.577208723632    -3.136679068420    -2.228478463781
O      2.457771234604    -1.953768178747    -0.373308900995
H      1.677667751016    -1.694842336040     0.367336256732

