# STO-3G

title

0 1
C      0.442099256053     3.852259874383     0.403952596604
C      1.143294630714     4.994310638139    -0.056021233221
C      0.489144720525     6.003691847864    -0.780498030915
C     -0.886855349956     5.885983676503    -1.057092161280
C     -1.593332551499     4.753255311568    -0.604773739651
C     -0.939713348676     3.743148514316     0.117386869679
H     -4.136442286391    -0.346708180774    -0.048336528442
H      2.207668250399     5.087073948806     0.156508043143
H      1.043635204578     6.873624324269    -1.124485628911
H     -1.400446990976     6.663281214140    -1.618566974359
H     -2.653692380438     4.654247012806    -0.824324032328
H     -1.496038270855     2.873543392323     0.444259351796
C      1.195476042890     2.857164425720     1.196835881680
H      3.034313954776     1.751129236810     0.017016580778
H      2.213528093969     3.163965217377     1.427570922836
C      0.686245630526     1.721813367968     1.827535279734
H     -0.362371362594     1.474584514110     1.784031204711
C      1.478197016016     0.888605918655     2.740678500485
O      2.707147140724     0.769340898685     2.474382272357
O      0.818861606482    -0.075974609278     3.517650867770
C      1.657523393233    -0.974881215634     4.256157085402
H      1.018983755765    -1.668657776121     4.845110457691
H      2.287080485914    -1.585222903353     3.569773263942
H      2.309085467466    -0.416959492800     4.965998729259
Pd     1.761520773522     0.892283396627    -0.040599703677
C     -1.101130228759    -0.194518564375    -0.214333667788
O     -1.391486641273     0.793524342037    -0.923947235398
O      0.142430589693    -0.561222302737     0.090666209811
C     -2.190941408238    -1.045805254168     0.499924359612
H     -1.792664445593    -1.296060973833     1.488681396005
C     -2.515894817431    -2.324652928858    -0.241746531909
H     -3.281889334660    -2.893844007447     0.324524367183
H     -2.921969418275    -2.076610507851    -1.244058619873
H     -1.604858564650    -2.948060658876    -0.352346149222
N     -3.415556627760    -0.266213289018     0.655412681300
C     -3.392000401097     0.816203950104     1.474760615475
O     -2.387295035433     1.163007719894     2.144905924884
C     -4.623271188843     1.629170431608     1.568270096407
H     -4.916025027975     1.664421771997     2.630383028985
H     -4.372805683033     2.639173853668     1.203913782444
H     -5.432368327951     1.187544574353     0.961273180361
N      2.694715858355    -0.231925839971    -1.526528366889
C      3.577978076106     0.380798081137    -2.376053902413
C      4.340569297778    -0.371584734494    -3.243275925474
C      4.212997394116    -1.742385927117    -3.279265593998
C      3.308124077564    -2.331100848923    -2.436826160576
C      2.541535266310    -1.529906850419    -1.564485738312
H      3.685702825006     1.459196623352    -2.360695629109
H      5.036178517523     0.119852511786    -3.904729579619
H      4.808098426684    -2.340485462238    -3.964675794863
H      3.147857520067    -3.391351793502    -2.427367148545
O      1.680980379917    -2.203464025758    -0.831581363578
H      0.965929182808    -1.605483873945    -0.339056156709

