# STO-3G

title

0 1
C     -0.155783714225     3.251067155247     0.145631295036
C      0.161392468905     3.595469519227    -1.189352715030
C     -0.795795805522     4.199072859795    -2.020640177568
C     -2.080097250410     4.494171505447    -1.522030399507
C     -2.398973429939     4.175890782751    -0.186856156245
C     -1.445906265125     3.555629407186     0.643941321816
H     -2.855298634596     1.642491487550     0.485251233787
H      1.148729246723     3.362527629988    -1.583308997011
H     -0.542950000221     4.435084966121    -3.051112481717
H     -2.817990305732     4.972684763562    -2.161399115594
H     -3.379619395547     4.424241259692     0.213279714357
H     -1.697187729411     3.324471937797     1.676250236232
C      0.890933540406     2.679283005511     1.032799123321
H      2.934917715025     1.199006032703     0.528456056422
H      1.861458478808     3.162301195415     0.938860439679
C      0.647583628005     1.802976169894     2.095892746670
H     -0.345856383548     1.408919748918     2.249022495111
C      1.594408961588     1.554383911225     3.192617614071
O      1.299971825611     0.682157514970     4.048698383843
O      2.937627986433     1.927701232128     2.997061158381
C      3.823476672910     1.654657024903     4.093057247919
H      4.844158203855     2.018805617516     3.845426895669
H      3.485014469922     2.180682213080     5.015276773092
H      3.883535495880     0.560983888000     4.296357251693
Pd     1.539638161429     0.567892263631     0.394163824261
C     -1.193397762245    -0.125928434971    -0.772922229984
O     -0.797504285373     0.246581552293    -1.943975835117
O     -0.417093412043    -0.340442569304     0.233837889173
C     -2.715631989230    -0.232971698943    -0.453513457526
H     -2.938168206757    -1.277668657440    -0.207012160185
C     -3.612815569696     0.199337540389    -1.591648646820
H     -4.673597821253     0.126050649964    -1.275480912061
H     -3.391131621365     1.256226348800    -1.852588471213
H     -3.445038268731    -0.442425046064    -2.480445681568
N     -2.971103671767     0.649407292018     0.687049911891
C     -2.819050395439     0.384153194071     2.014340066528
O     -2.629615800322     1.292861548992     2.863888259608
C     -2.913800222726    -1.021602822352     2.460922019529
H     -2.062994578838    -1.578624717193     2.037109285937
H     -2.854685464308    -1.033061787302     3.563738179055
H     -3.884495181707    -1.426200684835     2.127650252429
N      2.502818395210    -0.780827496756    -0.841845142803
C      3.446119604617    -1.618897708750    -0.310689889529
C      4.303692657968    -2.306502916853    -1.141367143932
C      4.210015704201    -2.174144295647    -2.509407576793
C      3.243569522973    -1.347028764336    -3.017217291900
C      2.374127738507    -0.660776894836    -2.140933588843
H      3.529587324042    -1.725726145154     0.764863622648
H      5.048845933339    -2.959365041989    -0.715517921037
H      4.881618406440    -2.717115662229    -3.169570090888
H      3.109320030642    -1.210709709007    -4.072558746595
O      1.477960733663     0.082345433917    -2.731186562560
H      0.463437237695     0.235937805880    -2.288227480511

