# STO-3G

title

0 1
C      0.421692450556     4.347404923898    -0.501658729102
C      1.409699672458     5.166718318629    -1.103507227576
C      1.113169656128     5.945511544089    -2.233449681220
C     -0.184265001698     5.917572655305    -2.780355262927
C     -1.173651381632     5.104032278677    -2.190589512898
C     -0.880265792297     4.322019502595    -1.062907629137
H     -0.694588783733    -0.163772598965     1.783599887927
H      2.413772324254     5.189818108876    -0.681696013995
H      1.883218182088     6.567729630756    -2.682678306638
H     -0.421100072602     6.517897819596    -3.655739688172
H     -2.173819276721     5.073681320833    -2.615498509836
H     -1.652129790527     3.683254363111    -0.645490350704
C      0.804881963423     3.593456236120     0.709458186964
H      2.393936184818     1.600126558430     0.911306124981
H      1.805527014718     3.820463380649     1.073415473708
C     -0.044186639783     2.832491627856     1.529550785260
H     -1.088434146527     2.737741275833     1.273928201307
C      0.312084852660     2.383350178809     2.883453327370
O      1.532965341561     2.206934699228     3.146331930623
O     -0.692770812394     1.821471462211     3.685750812268
C     -0.245516207192     1.040943262087     4.803006795675
H     -1.127975405736     0.656406812678     5.358287802148
H      0.349320726449     0.163685964940     4.457048620004
H      0.365457354159     1.656696422534     5.501027468354
Pd     1.065563167370     1.378152483330     0.191231982287
C     -1.991771552083     0.845640870698    -0.209954297637
O     -2.807631501439     1.747551141586     0.086224427641
O     -0.864678049945     1.077922000757    -0.899151590808
C     -2.136478041099    -0.628642425545     0.300790177240
H     -2.151244407580    -1.284144903932    -0.578792132538
C     -3.388292274891    -0.858600498363     1.116227623192
H     -3.431572103886    -1.915566903980     1.448695949117
H     -3.366302905774    -0.202185484434     2.011888617046
H     -4.288914077969    -0.623584008733     0.512093364375
N     -0.973366439028    -0.912409248459     1.153347375673
C     -0.103401667396    -1.957602138973     1.170676719722
O      0.917470410539    -1.973151283592     1.901869323897
C     -0.408891252893    -3.125517898840     0.315763857074
H      0.362674794616    -3.895503742058     0.495988615853
H     -1.400332554455    -3.510488070611     0.605686968864
H     -0.382824483558    -2.817171134871    -0.742136911965
N      1.935190067208    -0.327882295142    -0.657141148481
C      3.004020298123    -0.926015435192    -0.038933968451
C      3.637813397610    -1.996218577108    -0.635131562367
C      3.194727990560    -2.492764347446    -1.839480605864
C      2.099709517494    -1.908308418002    -2.417389938980
C      1.471945685240    -0.818643019678    -1.777972727430
H      3.363827681165    -0.551968406810     0.912340303477
H      4.479676995576    -2.453763500448    -0.140736593884
H      3.690286014241    -3.337848889363    -2.310282294095
H      1.690539046859    -2.261092225538    -3.343514142874
O      0.389737793285    -0.389601529374    -2.384725156444
H     -0.222967769906     0.267356934717    -1.804983960531

