# STO-3G

title

0 1
C      0.481194593756     4.215278287600    -0.355474495898
C      1.456082065523     5.155261535967    -0.772216918533
C      1.234754218279     5.980422652849    -1.887106120662
C      0.030655338880     5.873939703826    -2.608921778386
C     -0.940391632974     4.931704982167    -2.211102735330
C     -0.721251106038     4.106320737750    -1.098073704985
H     -1.443509737124     0.204127024792     1.435288836668
H      2.388519905009     5.240160533184    -0.215270795826
H      1.992678554801     6.698918952290    -2.189808572740
H     -0.145868819106     6.508965133276    -3.474000853173
H     -1.861659095123     4.832147661670    -2.779735647424
H     -1.449357306650     3.344730695051    -0.842097937305
C      0.772977033610     3.418565099158     0.855481842525
H      2.277957430352     1.344695314750     1.011054179268
H      1.755318649417     3.610543581985     1.285483195627
C     -0.136925454114     2.665673513305     1.618684174054
H     -1.170840684139     2.606247414758     1.315899892192
C      0.151945711109     2.188181588028     2.979288323347
O      1.354016843790     1.983278935358     3.302701665093
O     -0.912144806535     1.805210089620     3.810388978233
C     -0.548250360458     1.133002010367     5.023627758241
H     -1.468468647005     0.875470761177     5.590363208555
H     -0.005574683706     0.185725342598     4.800521354393
H      0.087323686634     1.784759118315     5.664461691538
Pd     0.941194457868     1.251509443522     0.251983585320
C     -1.471300136248    -0.087885909688    -1.194829252550
O     -1.297660245187    -0.547231009427    -2.349737283722
O     -1.004341186450     1.058521683356    -0.720990201361
C     -2.260980412356    -0.931296670794    -0.117037814844
H     -2.299974412399    -1.973181209869    -0.446855184475
C     -3.671780351832    -0.434756184792     0.100946223528
H     -4.164439630792    -1.051313209169     0.880696631583
H     -3.647067203909     0.620233727664     0.444637099437
H     -4.250167304769    -0.502377861162    -0.843393867875
N     -1.523914822672    -0.771556967034     1.148283111395
C     -0.504653095460    -1.511122587489     1.611340637593
O      0.386159624497    -1.029359591054     2.383207847828
C     -0.412230011575    -2.925699179387     1.198756998435
H     -0.212834364640    -2.967469174059     0.114259670487
H      0.421327209733    -3.398642314323     1.748942749110
H     -1.363170006671    -3.424731279233     1.456131804796
N      1.813133931297    -0.309663678849    -0.789940532377
C      1.747837480950    -0.244860182644    -2.158556649514
C      2.485308657670    -1.127164590389    -2.920214204466
C      3.273563977855    -2.083512357901    -2.320303307277
C      3.302374139751    -2.135709195091    -0.950523662857
C      2.533394488268    -1.220401326235    -0.203499786031
H      1.142786807106     0.516147221879    -2.638738607108
H      2.430112762154    -1.067150595801    -3.995461505541
H      3.853127980757    -2.782187659064    -2.918102150212
H      3.889943175813    -2.861933997103    -0.424036023495
O      2.621210942345    -1.398890184142     1.103185269119
H      1.875215896954    -1.027156766344     1.684669259632

