# STO-3G

title

0 1
C      0.438766259376     3.711641451145    -0.167198972321
C     -0.965721768207     3.627305039531    -0.019212754640
C     -1.817574406451     4.374616151319    -0.846861948858
C     -1.282570069611     5.220791686961    -1.839652348313
C      0.113916912408     5.319972263727    -1.991607330763
C      0.964667990606     4.574911701772    -1.158735256663
H     -2.358549776820     0.911638142378     0.200435154843
H     -1.382235195818     2.987970172990     0.751909979216
H     -2.895521912673     4.309025892292    -0.720033279575
H     -1.945078224153     5.799513634554    -2.478621727972
H      0.534350746969     5.977182606879    -2.748657592808
H      2.044147306259     4.654939791988    -1.276951783972
C      1.387114943201     2.965366051130     0.689118697918
H      3.156133414893     1.306621877563    -0.214000856660
H      2.413563991685     3.322144094944     0.642232614419
C      1.057092692507     2.019049754534     1.665541740955
H      0.027289407044     1.750730051766     1.843901328082
C      2.009080755413     1.482002771387     2.645519195148
O      3.219456412014     1.398761942959     2.301689810402
O      1.506879897156     0.732052933177     3.719220100773
C      2.476526960713     0.029567835848     4.509053480956
H      1.957459734589    -0.511579269632     5.329972292544
H      3.019397539677    -0.722874027369     3.892609090742
H      3.206035533513     0.736357505306     4.965276014820
Pd     1.673992480430     0.889810676337    -0.222391576519
C     -0.610336041369    -0.731845758051     0.726131878819
O      0.298422368950    -1.518112255790     1.182361794640
O     -0.399023160783     0.222299631008    -0.131117281672
C     -2.041709038070    -0.863744045422     1.267063670640
H     -2.000824183916    -1.039295614071     2.347110018850
C     -2.793785420715    -2.008835680377     0.619849530109
H     -3.798818935099    -2.098178068122     1.082455813002
H     -2.917512121000    -1.801311055832    -0.462774055067
H     -2.243564708080    -2.961764888683     0.762537720068
N     -2.747877901968     0.383858431506     0.978649752227
C     -3.763740959862     0.820889861188     1.763468421696
O     -4.181787645757     0.229111892173     2.786465741874
C     -4.405673418068     2.080148037789     1.330974029772
H     -4.746226521684     1.945474357651     0.290731548790
H     -5.261517771861     2.281564150695     1.998257662186
H     -3.664137649855     2.890813446204     1.404087619417
N      2.274469260357    -0.508626009141    -1.612579126580
C      2.549107547707    -0.111029096943    -2.892976624659
C      3.205966179440    -0.965166377539    -3.752385845783
C      3.571211738330    -2.228500746238    -3.341040908415
C      3.262612822162    -2.610350642913    -2.061820180823
C      2.585485908669    -1.713955018855    -1.207316317635
H      2.266574547535     0.882338619714    -3.222805478974
H      3.425413984079    -0.643248777482    -4.757797168813
H      4.083909114265    -2.908199157687    -4.016852196445
H      3.503455204414    -3.585521718550    -1.686338269950
O      2.310801900553    -2.193396821315    -0.022825892751
H      1.486579158732    -1.785585468492     0.550573942260

