# STO-3G

title

0 1
C      0.378804600489     3.797753823305     0.272232383914
C     -1.022257472552     3.820789713821     0.475664492169
C     -1.831010554645     4.708284412018    -0.253495724380
C     -1.260935758996     5.575488128710    -1.206975611190
C      0.131332958449     5.559711124321    -1.418456738782
C      0.941607051482     4.685236918448    -0.677129009849
H     -2.133066845300     0.807940674340    -0.230774561855
H     -1.475737050918     3.174976221588     1.222683771340
H     -2.902048549464     4.741847964953    -0.070993197524
H     -1.891769708612     6.261000415177    -1.767509213734
H      0.580863748231     6.229852195982    -2.146938403348
H      2.018695100890     4.679092639057    -0.837257449670
C      1.294891112329     2.933818650217     1.050522714210
H      3.193298530734     1.556534307399    -0.000043073853
H      2.322205018570     3.288488039424     1.094463761698
C      0.916899770249     1.866817435436     1.869354864914
H     -0.119250349302     1.581869680594     1.954786518187
C      1.828673116782     1.164120064829     2.777070681760
O      3.013979858946     0.987596641317     2.376025521326
O      1.289247259140     0.403677068398     3.824161269370
C      2.175501243117    -0.536865486511     4.445670479645
H      1.633550957107    -1.067167423477     5.258665908084
H      2.516692191927    -1.300781625199     3.709803401312
H      3.056132347388    -0.022092408082     4.891668454936
Pd     1.735072208438     0.968673463053    -0.079128851201
C     -0.483866657862    -0.771708835017     0.601348130565
O      0.394501228621    -1.443929108228     1.199558534578
O     -0.221912003096     0.212899960477    -0.265138008614
C     -1.996974503938    -0.952525131012     0.867043445058
H     -2.152844680539    -1.139422131337     1.934487858618
C     -2.591414779543    -2.099268674115     0.077794440913
H     -3.663322087293    -2.210437273239     0.343187732150
H     -2.513449517094    -1.876661624256    -1.005766753989
H     -2.057317481637    -3.043412847710     0.310647206182
N     -2.666706825173     0.285514295825     0.463513943365
C     -3.725585670974     0.780509064563     1.147830891230
O     -4.240231299461     0.243732751303     2.159805121460
C     -4.309224233877     2.040897051572     0.636486922341
H     -5.374053181831     1.847476632432     0.426766701276
H     -4.204600903758     2.797511957966     1.430479475979
H     -3.792465364245     2.361489480282    -0.285117915292
N      2.372194275716    -0.375638680296    -1.495654382802
C      1.549267087476    -0.718546882559    -2.536580827455
C      1.945758708713    -1.698310146166    -3.424840171067
C      3.153247223973    -2.344813062105    -3.263284345852
C      3.947897930040    -1.983925806636    -2.204758767332
C      3.503636578185    -0.982408755960    -1.322027016478
H      0.603445280234    -0.208046310233    -2.677208781409
H      1.297446330590    -1.963019644713    -4.244673153780
H      3.465256784526    -3.122862707318    -3.955222582904
H      4.890267568868    -2.458083559449    -2.013125077808
O      4.329385622194    -0.727590870383    -0.314387905921
H      3.962760640815     0.000800782761     0.266075934630

