# STO-3G

title

0 1
C      0.209163826973     4.106433868377    -0.223090344208
C      0.959467539878     5.014246593164    -1.009496159421
C      0.347241993169     5.778550250624    -2.016313094009
C     -1.034245304290     5.649444055801    -2.252525854864
C     -1.791619804954     4.746334386248    -1.478363110217
C     -1.179400921665     3.980695924833    -0.475160629656
H     -2.970462527726    -0.606354033357     1.276158007696
H      2.029846304720     5.112277663803    -0.834250758051
H      0.942036253550     6.465238436460    -2.613432342518
H     -1.513243800782     6.236582738110    -3.032413651689
H     -2.856709209167     4.635253032266    -1.667036731105
H     -1.771360659969     3.269177986033     0.090070958814
C      0.917501070772     3.370834330210     0.848501141316
H      2.708167646386     1.472083599433     0.586044835168
H      1.949421114582     3.685376470296     0.992635825132
C      0.335503467341     2.523956979458     1.804962785620
H     -0.717799162710     2.299001957832     1.753654227025
C      1.009382659378     2.079352296871     3.031414490820
O      2.263034752259     1.950013879314     3.002962020558
O      0.241982109260     1.445229491187     4.021375466865
C      0.969944256718     0.902249778234     5.132050081485
H      0.255656544663     0.448778212184     5.853329292807
H      1.672844621405     0.106426926574     4.795872948445
H      1.537701571726     1.700130127229     5.662731950988
Pd     1.234339723622     1.212944854521     0.226090998280
C     -1.237794468083     0.050993987539    -1.077714528321
O     -0.841152593934     0.092424219821    -2.296107838428
O     -0.857393172492     0.855919816243    -0.141705267696
C     -2.181033452904    -1.106336404155    -0.639222250215
H     -1.720115855001    -2.025781942121    -1.016431096783
C     -3.577317749322    -0.986197030180    -1.208881612773
H     -4.186329775381    -1.853209286946    -0.879466926050
H     -4.049230435652    -0.053089568726    -0.839921425978
H     -3.537002738565    -0.967662985165    -2.317696197425
N     -2.268719985950    -1.173166226111     0.816014557298
C     -1.191884407409    -1.574539028542     1.548675116763
O     -0.115972123072    -2.004658104608     1.070506916817
C     -1.356150097622    -1.491615237407     3.015634591458
H     -2.219824807567    -2.119937263420     3.291169562400
H     -0.435279773449    -1.860875606821     3.497125610024
H     -1.540443127982    -0.436907484425     3.284137391132
N      2.019759885816    -0.389960274172    -0.843230258385
C      2.655776415091    -1.376705340669    -0.137524436668
C      3.546400168458    -2.213149666305    -0.778917596569
C      3.768947680629    -2.093659065925    -2.133757581042
C      3.080443176271    -1.130007372439    -2.823336893432
C      2.171358224293    -0.298351712787    -2.135178487935
H      2.497654811597    -1.467228412742     0.930956190616
H      4.054872917195    -2.977553218608    -0.214431601027
H      4.460055629714    -2.758239659259    -2.645466966036
H      3.177200239678    -1.007616197706    -3.883777172607
O      1.491230928215     0.543216284919    -2.890297146412
H      0.455084498683     0.576724137639    -2.624752799081

