# STO-3G

title

0 1
C     -0.217347184471     3.330571668417    -0.267492625067
C     -1.482605602625     3.640495028882     0.289337689528
C     -2.530682743368     4.091649721860    -0.535825039147
C     -2.332211043981     4.235529951235    -1.923370868493
C     -1.073202171085     3.937357712252    -2.481109770035
C     -0.022488020543     3.500693819315    -1.657742348710
H     -2.667543062784     1.613925406804     0.546838547950
H     -1.639248546490     3.550972013835     1.361704830435
H     -3.491715796992     4.344647036336    -0.093631684886
H     -3.142780535410     4.583984990297    -2.558738052782
H     -0.911768298965     4.041588867672    -3.550982950875
H      0.945026204053     3.263298146370    -2.095706276098
C      0.919721715115     2.921233985482     0.599561719644
H      3.023384158394     1.547011460079     0.028984502441
H      1.860192108816     3.421508454259     0.377715429195
C      0.780635287119     2.177525794596     1.773697135373
H     -0.187475995298     1.791719418253     2.051911612526
C      1.822183039502     2.044363880266     2.800084408654
O      3.023991783025     2.067253098414     2.415471213274
O      1.480289297408     1.463235564948     4.030480041311
C      2.549694336334     1.307778369549     4.973549979713
H      2.147485696500     0.867322912508     5.911796943718
H      3.333578914171     0.623126956359     4.578530860993
H      3.004284999679     2.293391435581     5.222694283274
Pd     1.690994479998     0.789658753474     0.164717157582
C     -1.049360725819    -0.242413447320    -0.645237179829
O     -0.748692657533    -0.058807263438    -1.887352529347
O     -0.199708199720    -0.271011897884     0.325096115627
C     -2.544163211785    -0.341337062027    -0.211172350235
H     -2.726509307478    -1.361135883476     0.148015022066
C     -3.524158339272    -0.038718613374    -1.322886072113
H     -4.559892781946    -0.094609897861    -0.929560732460
H     -3.342567592350     0.989632506892    -1.702405785261
H     -3.403039969574    -0.764250363744    -2.152979939440
N     -2.747842533030     0.643742010739     0.852229774440
C     -2.509740604805     0.515381166281     2.186349254106
O     -2.284412005738     1.507430553009     2.926739461752
C     -2.550796565410    -0.840133296321     2.773693006604
H     -3.532684626732    -1.282776350156     2.538127743113
H     -1.718401059412    -1.424022814573     2.350125390881
H     -2.426465645236    -0.749991331447     3.868070647061
N      2.689394561122    -0.672143673547    -0.890740976262
C      3.752468596954    -1.291490537158    -0.290109896428
C      4.617300235387    -2.058241203296    -1.040074793216
C      4.415101567962    -2.221680995178    -2.392757869954
C      3.334667049408    -1.606246310439    -2.967117267695
C      2.462342272611    -0.830219966175    -2.172218587257
H      3.921251223559    -1.164698749489     0.773280139016
H      5.456425676336    -2.536996858582    -0.561167565258
H      5.093051897560    -2.827288866096    -2.988768710103
H      3.116096410248    -1.701653874363    -4.012732382004
O      1.459893406615    -0.304713970193    -2.819323823199
H      0.479447318696    -0.099907404966    -2.323572582801

