# STO-3G

title

0 1
C      0.164267667779     4.338741731914    -0.468265341909
C      1.070513985389     5.246388904321    -1.068757530482
C      0.681654529411     6.050870488729    -2.152668765116
C     -0.629627391097     5.962610023650    -2.656660743465
C     -1.539996908602     5.059897482711    -2.069926268303
C     -1.150813426035     4.254022173578    -0.989088311607
H     -1.924409376280    -2.848275157249    -0.165392226239
H      2.087688725736     5.314986980053    -0.685331187695
H      1.394632608669     6.738312274784    -2.601573682349
H     -0.936408502531     6.581013923087    -3.497009532611
H     -2.550386608268     4.979151155741    -2.464057828128
H     -1.854424342665     3.540632272459    -0.574662137938
C      0.639301443059     3.557193115001     0.697368678273
H      2.374168529537     1.701208027127     0.680486942770
H      1.638069078547     3.830111297157     1.033027231979
C     -0.142618535579     2.734384762244     1.523596397808
H     -1.179190925081     2.562531165106     1.287911480665
C      0.286924979682     2.214257977355     2.827552266270
O      1.517401037377     2.001866608240     3.012980382594
O     -0.684479695761     1.753574631690     3.730626973063
C     -0.194946226329     1.010452277986     4.854590831622
H     -1.051849252087     0.704960343927     5.492736856208
H      0.327492049082     0.087056165389     4.514996879212
H      0.496364705587     1.628976863051     5.470403877911
Pd     0.980222508256     1.392291614923     0.123206839211
C     -1.483364208393     0.051406967384    -1.075678935172
O     -0.976827711790    -0.490144021168    -2.136051290783
O     -1.113869648315     1.176945185248    -0.585633421149
C     -2.509512525599    -0.835005106974    -0.314184494302
H     -3.201246361171    -1.261419924592    -1.048713440877
C     -3.298046330340    -0.107279977909     0.754587775851
H     -3.998648121141    -0.815916269808     1.241935710700
H     -2.612514428203     0.301062140854     1.524933856056
H     -3.874509965319     0.724628311705     0.301060745630
N     -1.780307048621    -1.960080728205     0.297227630633
C     -0.737658562827    -1.853774028695     1.167216401800
O     -0.297745295542    -0.790493436155     1.667689027986
C     -0.095256336113    -3.136558837440     1.528853965140
H      0.702319235340    -2.943326890007     2.266079474551
H     -0.872284716341    -3.789993723040     1.960077764136
H      0.324123420364    -3.581097358115     0.609094303166
N      1.940652144395    -0.317711664145    -0.609794475935
C      2.718580470462    -0.963015169951     0.315097626997
C      3.713220562811    -1.823159024837    -0.098707156152
C      3.923900611059    -2.056419668168    -1.440194178289
C      3.108331681363    -1.429742907292    -2.344402980416
C      2.084682217569    -0.570359247176    -1.886474661661
H      2.568089773037    -0.776350551955     1.372690185546
H      4.330520030119    -2.314724275368     0.635722157905
H      4.706758350557    -2.733326266556    -1.772296947663
H      3.194342065618    -1.594324814227    -3.400352087548
O      1.304897183760    -0.084921460345    -2.821307779943
H      0.233001355532    -0.089011699467    -2.552141047166

