# STO-3G

title

0 1
C      0.307883706962     3.811231462764     0.498443741168
C      1.011243856115     4.772145165485    -0.267882908784
C      0.326034256213     5.693552050948    -1.075311617623
C     -1.082102742319     5.675778562103    -1.119924560103
C     -1.790774345901     4.733132094574    -0.349075964618
C     -1.106360647755     3.806184026740     0.454561488571
H     -3.665707524368    -0.384770878212    -0.735320322484
H      2.100003230420     4.783111558551    -0.239284443715
H      0.882175506877     6.420628839562    -1.662343251897
H     -1.618004230028     6.389944687755    -1.741025194368
H     -2.878199157930     4.726410612366    -0.370224343822
H     -1.665666573998     3.095248751426     1.054196706315
C      1.087889414686     2.891647826675     1.358707854568
H      2.907288539123     1.910811632171     0.054447685840
H      2.096920596952     3.236756994773     1.575531178418
C      0.597880439483     1.776059300059     2.039676212950
H     -0.438049480387     1.479956356126     1.977303302182
C      1.409888677819     1.006002826582     2.987276037338
O      2.631833768534     0.861054860040     2.694619548201
O      0.775401369081     0.140614186335     3.890906124226
C      1.633047390271    -0.724048219137     4.648099673752
H      1.013941578788    -1.340694461627     5.335457194023
H      2.191929522101    -1.414817190586     3.976921889505
H      2.350207773175    -0.134273013147     5.262461883770
Pd     1.717212629978     0.920554290962     0.202556379912
C     -0.796935948837    -0.554229886983    -0.219292405969
O     -0.880056655954     0.030020937230    -1.342665284640
O      0.275303015692    -0.610356605604     0.535337767592
C     -2.067094653045    -1.193940808765     0.419076296987
H     -1.900344729897    -1.263994005527     1.496859867439
C     -2.383508292724    -2.564740152981    -0.137184534330
H     -3.299153529046    -2.957641764450     0.350871748172
H     -2.563160915320    -2.486786882737    -1.229219920169
H     -1.538684953396    -3.257581045809     0.053042377660
N     -3.209737115911    -0.314629857738     0.165871438135
C     -3.330203647979     0.839914204100     0.861889371426
O     -2.557498951482     1.202404277130     1.787243491824
C     -4.453072251039     1.714830870844     0.466987379466
H     -5.385220137307     1.136424347892     0.578135096531
H     -4.458418841511     2.599270498161     1.126926386560
H     -4.297283315847     2.015110136947    -0.583804394899
N      2.592435690505    -0.173009831341    -1.302687372210
C      2.009866174293    -0.311871405635    -2.535721251258
C      2.611815072536    -1.116097307473    -3.483940263056
C      3.781063002998    -1.788867390612    -3.195190510587
C      4.334794585476    -1.625846922768    -1.950092249050
C      3.687962999464    -0.795168830373    -1.017451759537
H      1.108770613508     0.234385183340    -2.782005526063
H      2.153099112353    -1.220205894725    -4.454294918124
H      4.252825206022    -2.428707017071    -3.936459888312
H      5.239451952774    -2.121803800505    -1.658569837489
O      4.291863246506    -0.703058304662     0.167083625101
H      3.779263354068    -0.088839427919     0.767101995024

