# STO-3G

title

0 1
C      0.442206659690     3.860596283997    -0.056474644577
C      1.227042195249     4.871076508329    -0.664041430578
C      0.679019665072     5.727859893822    -1.632687160783
C     -0.671855661277     5.588414409509    -2.006113242349
C     -1.462243550841     4.588414318343    -1.403235682582
C     -0.917115561452     3.727663955719    -0.437583963303
H     -3.121707244612    -1.738179360063     1.243134181555
H      2.272612459162     4.978733387016    -0.376996801058
H      1.296307969049     6.498163861878    -2.089279311445
H     -1.103536656784     6.250982088896    -2.753213207037
H     -2.506973088329     4.481881432834    -1.685981446386
H     -1.542572699682     2.965209294816     0.014284731934
C      1.076232386911     3.004975668684     0.971669026309
H      3.094854519498     1.449000603662     0.572743825156
H      2.058384905491     3.336305374079     1.303801434238
C      0.431636763145     1.975123496574     1.665421263466
H     -0.602994600741     1.751148012485     1.472222383968
C      1.002398612673     1.268486318342     2.816407458111
O      2.244562997053     1.035067729986     2.797363218998
O      0.147453506970     0.607071960374     3.712319612473
C      0.771413015235    -0.307346255383     4.623297676431
H     -0.005413129204    -0.757793623185     5.278029526260
H      1.271968194238    -1.133672893125     4.068754700330
H      1.511647833340     0.216213444040     5.269306086529
Pd     1.697797123284     1.032680511391    -0.010685288616
C     -0.719570575359    -0.453964626604    -0.166454486310
O     -0.134644127756    -1.022168336719     0.809529269557
O     -0.166190413717     0.470377208506    -0.921362271121
C     -2.204008216834    -0.852771451412    -0.436798368173
H     -2.205816923634    -1.892714656832    -0.788066706819
C     -2.924389405887     0.007427746824    -1.454516876992
H     -3.980192122925    -0.322506003196    -1.537133675999
H     -2.903699160746     1.069392379168    -1.136725750971
H     -2.432606668634    -0.082581162583    -2.444180523351
N     -2.939133459465    -0.830365975098     0.836193769618
C     -3.002179212829     0.257305098938     1.642556360288
O     -2.575601994483     1.401904482199     1.343478376324
C     -3.619965248184     0.038788612083     2.966588487023
H     -3.005415679233    -0.704442005212     3.501859157159
H     -3.624701232469     0.997789515223     3.512827015369
H     -4.647722802729    -0.330655653884     2.810709215712
N      2.636068434129    -0.344489134840    -1.218307462064
C      2.251488384299    -0.500517195587    -2.523814380164
C      2.827116691235    -1.495044689948    -3.289362261175
C      3.773665925688    -2.339167417583    -2.746104100388
C      4.128635171024    -2.159649393848    -1.432936900814
C      3.514624931196    -1.134671046875    -0.689959533542
H      1.512805413662     0.163840245338    -2.957797215810
H      2.524952367224    -1.614067465278    -4.317462285844
H      4.223897725154    -3.128536256946    -3.342508173635
H      4.845924358995    -2.789779129438    -0.944955744337
O      3.903604515642    -1.057327934279     0.578908265919
H      3.448016985568    -0.294074335564     1.038949818898

