# STO-3G

title

0 1
C      0.393074262763     3.700904626822     0.563079239913
C      1.063296460428     4.580122108944    -0.321572402288
C      0.356911179440     5.548547997982    -1.051587217668
C     -1.038095348986     5.667080812074    -0.893601257465
C     -1.711947383681     4.806795924408    -0.005119108255
C     -1.008025874656     3.826602522506     0.716526747754
H     -3.629619920669    -0.497682800020    -0.532573997201
H      2.140548502682     4.487172932524    -0.449705862963
H      0.887238222171     6.206439018481    -1.735934180707
H     -1.589164816369     6.421253108353    -1.450774840629
H     -2.785747119470     4.909868598642     0.132929819370
H     -1.541821988687     3.175685931214     1.402292334530
C      1.203606297478     2.746991180998     1.360240384541
H      2.868563592042     1.788163653255    -0.092245189592
H      2.229020505079     3.072346011013     1.520894256846
C      0.725947728419     1.645298106070     2.067782962505
H     -0.321352460067     1.381925333068     2.047401551748
C      1.554449488923     0.870863422752     2.999041821031
O      2.772082467851     0.722549397734     2.694824239472
O      0.930342486551     0.022089467675     3.926419864802
C      1.796892523459    -0.837065015753     4.679452696280
H      1.187567239184    -1.441372096435     5.386034892107
H      2.340563998391    -1.538336778945     4.006790832948
H      2.528221794920    -0.242563907031     5.272191083728
Pd     1.786835189219     0.742646182325     0.213860739387
C     -0.786029126476    -0.700115531003     0.026655558430
O     -0.938504568747    -0.064115741551    -1.093006963151
O      0.325786189888    -0.830128001329     0.657647617492
C     -2.068656716724    -1.267921036069     0.681143195487
H     -1.900908644348    -1.282505616212     1.761268793412
C     -2.398087911148    -2.666320476009     0.206382042849
H     -3.317318646323    -3.020483467766     0.717158357686
H     -2.580003954246    -2.652856744474    -0.888050754157
H     -1.561261217425    -3.356712854321     0.437670695881
N     -3.201553264852    -0.395814012867     0.379663102309
C     -3.285805398709     0.803163356144     1.010641160703
O     -2.480034202793     1.191911313496     1.894456905033
C     -4.398769309044     1.693994338838     0.619887386124
H     -4.947718132400     1.961366153072     1.537722256497
H     -3.952585453198     2.589065257647     0.158224309743
H     -5.071875406224     1.186641485050    -0.093274525450
N      2.630591176027    -0.258857634749    -1.366513965871
C      3.888574931907    -0.782884853322    -1.239808554155
C      4.558415640972    -1.240929900457    -2.353643783632
C      3.965222940874    -1.192767498405    -3.596319376663
C      2.697179688660    -0.683288440782    -3.692042974716
C      2.033996816925    -0.227026725296    -2.531807545795
H      4.362868276738    -0.820210255081    -0.265627378075
H      5.552108997170    -1.645773466797    -2.248187131938
H      4.487484676636    -1.555620925917    -4.477835765171
H      2.174536158391    -0.629875947790    -4.626995779442
O      0.821559213722     0.215066977091    -2.736331317665
H      0.074939547665     0.198764185106    -1.925642376097

