# STO-3G

title

0 1
C     -0.494102256852     3.258953955083     1.154744041763
C     -0.598968848241     4.222347720904     0.120240293548
C     -1.797662391284     4.919466015007    -0.101210134308
C     -2.919615988139     4.663929453467     0.712638852304
C     -2.833201724861     3.693831864740     1.732716150185
C     -1.634869993210     2.995174845848     1.955203365989
H     -0.569710159988    -0.448219411158    -0.785093405932
H      0.265547799523     4.423632464368    -0.509611548514
H     -1.854231167183     5.659184083622    -0.895720880982
H     -3.845477857423     5.212526532485     0.556018629721
H     -3.694378213542     3.487604073325     2.363323913665
H     -1.596974495580     2.259987394677     2.752127810125
C      0.841111142992     2.680691323619     1.429433330766
H      2.408315381487     1.381000922706    -0.108279153911
H      1.649965406526     3.215612788001     0.936000511220
C      1.154381780873     1.746560287817     2.426842881529
H      0.366889593823     1.270080379104     2.992756412826
C      2.511468221039     1.548779993079     2.958176655179
O      2.671440953040     0.777486043807     3.937236244167
O      3.596782695497     1.897197810085     2.132912019477
C      4.899960755759     1.605633555285     2.659291121505
H      5.675975830047     1.942307927633     1.937938959046
H      5.067357168775     2.141172771472     3.621863495653
H      5.028785070815     0.510815153005     2.821432590650
Pd     1.269314832146     0.567802769382     0.532987980438
C     -1.506887814198    -0.418862957964     1.554375998336
O     -2.048895487942    -0.125077912228     2.649468760074
O     -0.242576936031    -0.748432944191     1.363102911163
C     -2.375070295267    -0.377988876185     0.231209468447
H     -3.189982973340     0.332326421749     0.390698235433
C     -2.951781282700    -1.730444180414    -0.119194076691
H     -3.556455340967    -1.646560405077    -1.045202813679
H     -2.124115706030    -2.448167969074    -0.296381474724
H     -3.592742252126    -2.098067535550     0.708600132217
N     -1.474898101009     0.025069442134    -0.860011581419
C     -1.482374720531     1.093994012031    -1.660562337008
O     -0.463801726522     1.494886567512    -2.313876404780
C     -2.738342053024     1.847125996247    -1.812401334297
H     -2.988831505546     2.300268763844    -0.840288221570
H     -2.583723078742     2.645477369895    -2.559250781828
H     -3.525074294390     1.151288398302    -2.150346506521
N      1.742468137928    -0.906337400956    -0.859190893829
C      2.070031968511    -2.112308902848    -0.297075299894
C      2.817874843700    -3.023571718721    -1.013573558968
C      3.216128413954    -2.745064597656    -2.302767568685
C      2.847989342935    -1.545332398479    -2.852988321589
C      2.074702498062    -0.639065668388    -2.096591391555
H      1.770698660164    -2.337079159545     0.720097030253
H      3.081415942610    -3.965218606037    -0.559697697055
H      3.798267473797    -3.464074806265    -2.873219483345
H      3.100479229572    -1.280085277328    -3.860508455486
O      1.730627542249     0.450091530021    -2.735769446319
H      0.845418245127     0.956477288379    -2.435344399326

