# STO-3G

title

0 1
C     -0.336214149352     2.865106979820     1.666696929592
C     -0.049281748551     3.811046178530     2.674770115444
C     -0.326513337175     5.178288725491     2.481801443704
C     -0.896236020389     5.620649029555     1.272280751207
C     -1.194256853865     4.684693982433     0.263073609104
C     -0.922315670062     3.317655665342     0.459986950217
H     -3.439206234638     0.774911125411     0.359092281870
H      0.386747664760     3.478391242931     3.615245145273
H     -0.101622258638     5.893033694056     3.270202135818
H     -1.109970759950     6.676071930060     1.121282089151
H     -1.642443340858     5.015618470252    -0.671265345029
H     -1.190176916228     2.594241838973    -0.309188647695
C     -0.000602336014     1.398904545294     1.858901098020
H      0.172708285025     1.171916770362     2.922462916898
H     -0.845817847430     0.765877896304     1.577340252995
C      1.215740761620     0.890004637131     1.086593905882
H      1.419732468414    -0.154012656750     1.308975861240
C      2.450478146142     1.700500524587     1.026991313378
O      3.516371964874     1.191364886627     1.457544402966
O      2.496057697619     2.643231330767    -0.013006684589
C      3.705504859893     3.409758689888    -0.101874833759
H      3.616811925163     4.145035059483    -0.931011253898
H      3.884417345887     3.976285081794     0.840570309726
H      4.581136784579     2.753759834400    -0.311962792183
Pd     0.857103434524     0.886737963642    -0.927122935467
C     -1.437828520955    -0.943825988608    -0.355394239628
O     -0.537195700266    -1.854109878278    -0.316236065197
O     -1.280117828053     0.264224278055    -0.831735651845
C     -2.809707150979    -1.239628956311     0.302019410051
H     -2.658437267505    -2.015151941186     1.056835156391
C     -3.847426261397    -1.699832145271    -0.697041465326
H     -4.794176300464    -1.925616373568    -0.164079116909
H     -4.037058480463    -0.891498615839    -1.432466723899
H     -3.496871842610    -2.612405215327    -1.221689684895
N     -3.305199322995    -0.032179557969     0.958404937056
C     -3.203679718340     0.134899215433     2.307583791979
O     -2.737419750619    -0.710512719836     3.106303249100
C     -3.695900246506     1.432068646583     2.817185327526
H     -4.758576379745     1.521911315425     2.537394475573
H     -3.578267091216     1.447083362562     3.914250756630
H     -3.100903275438     2.238992883872     2.354300905987
N      2.175168722471    -2.401068535575    -2.712748836744
C      3.020764284034    -2.754099774328    -3.730002798192
C      4.299887036638    -2.225086286568    -3.780493168979
C      4.736535262852    -1.353945369870    -2.802720362485
C      3.866389023210    -1.018518649127    -1.796484180676
C      2.576919080750    -1.596185527194    -1.801154581323
H      2.683042791252    -3.440796377678    -4.497482900601
H      4.959390318452    -2.511017674925    -4.583353402308
H      5.745116404549    -0.949764512400    -2.826375467530
H      4.150517637681    -0.378565951113    -0.983545608767
O      1.798548965081    -1.206179853092    -0.762642128753
H      0.825565054195    -1.636883532283    -0.658551720714

