# STO-3G

title

0 1
C      0.155484839245     2.378481612545     1.372316604072
C      0.749791973653     2.555630244433     2.641849464868
C      0.428936302259     3.670023743648     3.440689028314
C     -0.496435347418     4.627393302612     2.982087767928
C     -1.100840882403     4.458731576147     1.721091793379
C     -0.780396111944     3.342897066767     0.926073965297
H     -2.563495946007     0.984325788209     0.649174663576
H      1.459536340676     1.815379484791     3.005100304339
H      0.895130862205     3.789384367789     4.416164868902
H     -0.745869896865     5.487988709738     3.598324721265
H     -1.820434372806     5.190258425006     1.359812949460
H     -1.256922146658     3.219978096903    -0.046311058185
C      0.499616403877     1.167836311313     0.530742424499
H      1.136932001713     0.457428242005     1.083942785718
H     -0.386075945500     0.561829006601     0.320256042904
C      1.215229675724     1.400215344859    -0.791916796016
H      1.468779090879     0.443564021024    -1.244962108097
C      2.321788576119     2.380635465634    -0.858700494458
O      3.409257760153     1.988466324778    -1.352103421358
O      1.919146600074     3.709285283706    -1.062786721919
C      2.979666607931     4.675152945051    -1.087408022879
H      2.549452235486     5.692430302806    -1.213834483071
H      3.547704490648     4.662110873196    -0.129007958352
H      3.677487798316     4.485399419024    -1.934982295617
Pd     0.118858396072     2.260655091555    -2.309280566790
C     -1.815594066557     0.092221457721    -1.764098341540
O     -0.922633798679    -0.743023931634    -2.094782804336
O     -1.706802932739     1.405042406926    -1.909665998221
C     -3.051924451897    -0.357580987019    -0.937004113708
H     -3.136937227476    -1.446008128456    -0.986959125649
C     -4.351228045288     0.289270094088    -1.360361526480
H     -5.177266234998    -0.112338053216    -0.737653207085
H     -4.289181988207     1.385010863564    -1.199685621833
H     -4.557668531707     0.073902410478    -2.428186029625
N     -2.770122744353     0.010142888140     0.453831861229
C     -2.633872273244    -0.946158450331     1.423669157860
O     -2.809991387798    -2.168847661063     1.248092141180
C     -2.263687758730    -0.436516676352     2.760060377343
H     -3.040665242618     0.277135706221     3.079351560239
H     -2.202334881885    -1.290814908709     3.455583983489
H     -1.283606401836     0.064356203276     2.680709712081
N      2.593973416847    -1.385686035535     0.603877203607
C      3.942581981911    -1.551078886285     0.439057072958
C      4.430646946081    -2.197404406940    -0.683519318147
C      3.567149840284    -2.690259116363    -1.638856579839
C      2.219549077115    -2.522823422892    -1.447281456746
C      1.780017232521    -1.856882840741    -0.272933446219
H      4.626585094763    -1.159989186498     1.182967770749
H      5.494605143589    -2.313691698480    -0.805064054598
H      3.945773883897    -3.205028686273    -2.517803895755
H      1.499555917019    -2.911035541164    -2.138652981047
O      0.446360297317    -1.726272436095    -0.098431402309
H     -0.108376860020    -1.649742334138    -0.924135470145

