# STO-3G

title

0 1
C      1.475087965085     2.145345320418     0.973120818282
C      2.453956777406     1.923531495652    -0.020194713306
C      3.456847978002     2.880443389603    -0.259168843469
C      3.497001330495     4.074738562906     0.486681893592
C      2.527905247269     4.302490278999     1.482760810597
C      1.526295301034     3.343191815567     1.721940309092
H      0.531299035677    -2.764939719960     2.536137246209
H      2.438201055515     1.006932785242    -0.603347943973
H      4.204293572153     2.690656305129    -1.026879361169
H      4.274398355406     4.811968445291     0.298698648712
H      2.556374229568     5.215836861705     2.072974208641
H      0.786642792926     3.522022433195     2.502007867589
C      0.368737692230     1.121222922721     1.232518550309
H      0.754399410893     0.110963813859     1.061754793291
H      0.028139056509     1.207352917481     2.269270338905
C     -0.796365067481     1.336488199573     0.258873874321
H     -0.560360196023     1.018113851689    -0.759280879922
C     -1.577946461991     2.592715745035     0.291515045724
O     -2.469140863538     2.724555402617    -0.586801210843
O     -1.694817947868     3.272037396158     1.515600699043
C     -2.491565012423     4.464564028740     1.494048617288
H     -2.486079555260     4.928047894233     2.504283935372
H     -2.076101541547     5.204099321955     0.772224858730
H     -3.547665136467     4.234885327975     1.225341932319
Pd    -2.353747273694     0.031711593365     0.665479109129
C     -0.746143535683    -1.966116470704    -0.116983704648
O      0.493448090426    -1.707504204292    -0.315608177764
O     -1.750088080652    -1.491447715427    -0.804736942987
C     -0.993355026938    -2.930212330599     1.106369878461
H     -0.440963712231    -3.849226026325     0.876047566704
C     -2.441426545816    -3.294975053277     1.363281201627
H     -2.493979063621    -4.006493818064     2.213639166736
H     -3.038340147950    -2.399669020043     1.616177314876
H     -2.873944821467    -3.779467370406     0.463338233237
N     -0.387083706881    -2.385319772333     2.336963155528
C     -0.789059387557    -1.318445298285     3.056515288801
O     -1.784278584640    -0.572679273260     2.812170173697
C      0.034762074584    -1.008300171971     4.242178700046
H      0.028091659374    -1.893706949096     4.900764663074
H      1.061022252514    -0.790979216242     3.897591041289
H     -0.388648737947    -0.133471525002     4.767911840395
N      0.354413839187     1.147469093840    -2.607361041941
C      0.003883988133     2.214842702736    -3.389590542594
C      0.668079160888     2.450403197642    -4.580103982979
C      1.688651238494     1.616709894665    -4.986981963523
C      2.017464760405     0.553746130003    -4.187268005274
C      1.300387848529     0.353928376738    -2.985599223192
H     -0.792651349121     2.876509808995    -3.069835153381
H      0.386026665541     3.295058507293    -5.185588263071
H      2.218872463504     1.798314623774    -5.917728476515
H      2.799886962235    -0.133909356693    -4.435514636313
O      1.719725211034    -0.700372660466    -2.280485101032
H      1.138130205439    -1.013983446338    -1.495449849061

