# STO-3G

title

0 1
C      0.585960525298     2.435486253851    -0.660168284064
C      1.836328762409     3.088184499513    -0.653893952319
C      2.091265828400     4.142839334692    -1.555507046077
C      1.105196063040     4.546788617914    -2.476590222225
C     -0.140095914496     3.889891607440    -2.492904802102
C     -0.400708580502     2.837574625377    -1.589480513982
H      1.938815143534    -0.456356109735     2.217138630627
H      2.618957477479     2.773514833546     0.034937753183
H      3.059423623912     4.639765330220    -1.538845105177
H      1.306219781690     5.358834896939    -3.171394574077
H     -0.907666016482     4.192905978306    -3.202345213765
H     -1.375528009853     2.350500297352    -1.614865107790
C      0.218540363618     2.191767817988     2.333515986857
H      0.804300479696     3.063366303628     2.062934752222
H      0.688158871048     1.485379873226     3.012096863846
C     -1.134309410242     2.081144983770     2.013545947494
H     -1.702435004883     1.263280470013     2.432163329856
C     -1.929088947813     3.143628919392     1.377663931932
O     -3.086317513577     2.862660402324     0.969288075147
O     -1.351067505724     4.401368926519     1.137962546234
C     -2.164182884208     5.345676851613     0.428501422146
H     -1.595370597445     6.291445028910     0.296810141926
H     -2.428300590777     4.960397087985    -0.581952825094
H     -3.094691525501     5.573326511735     0.996059360088
Pd     0.165163123296     0.862474215088     0.515061582950
C     -1.126163894472    -2.924410274464     0.308054386817
O     -1.798453188821    -3.952205807496     0.209489272557
O      0.120460016457    -2.816178786824    -0.256240625642
C     -1.637270149145    -1.655477952870     1.061326682776
H     -2.357810544552    -2.020854913544     1.807227675656
C     -2.371871930518    -0.734221419576     0.112590909890
H     -2.797550199670     0.125641266815     0.665989601848
H     -1.688963586461    -0.368196619691    -0.679390440913
H     -3.211921555525    -1.280031079481    -0.367754781907
N     -0.504262969235    -0.906117596626     1.623467402644
C      0.105945792370    -1.218437517987     2.739138746608
O      1.266927508946    -0.695005727853     3.073825409463
C     -0.489649848338    -2.144866417569     3.724011497737
H     -1.460711517125    -1.736936101599     4.049711384670
H     -0.592481167658    -3.140107524345     3.259360996936
H      0.189002665219    -2.221572263173     4.594775535792
N      1.494758352450    -0.224583658435    -0.691835583247
C      1.434920740861    -0.263985123073    -2.060165198736
C      2.528652242802    -0.675191828008    -2.788998012181
C      3.699077805814    -1.034792160907    -2.159185451776
C      3.756430806459    -0.958598971030    -0.794143085042
C      2.629545346508    -0.521695319698    -0.060345774146
H      0.514517438465     0.000591244557    -2.567414003793
H      2.464307471279    -0.716554426286    -3.863879749601
H      4.562001878993    -1.361304841292    -2.733405754270
H      4.643642864301    -1.202311051695    -0.244441570829
O      2.795014697392    -0.432479633511     1.212494955804
H      0.567823843877    -1.943976752538    -0.084207371288

