# STO-3G

title

0 1
C      2.113262690290     3.266579423631     0.621475180483
C      0.736946262486     3.299197330361     0.986977483758
C     -0.256297054907     3.294740724337    -0.030109758691
C      0.133252065715     3.292103193550    -1.397450632273
C      1.490145665559     3.290132004103    -1.741646625410
C      2.487380251739     3.265187394374    -0.727747345182
H      2.867140919389     3.232467756118     1.401269986697
H      0.447118721649     3.432428690520     2.024886697809
H     -1.306664068815     3.351351908699     0.233477080615
H     -0.631066555264     3.299374365942    -2.168730976562
H      1.788002885084     3.305230144066    -2.787222878839
H      3.541288656272     3.266487687840    -0.997971320495
C      1.991527468241     1.057654052384     3.386324763294
H      2.444413159183     2.012919959290     3.129643048239
H      1.057749586033     1.080289089005     3.940337535320
C      2.514614791074    -0.134174039173     3.015623071065
H      1.989397937428    -1.031674851103     3.301842951922
C      3.683195312895    -0.326498595336     2.144610027363
O      4.140452983130     0.652649775363     1.489983234066
O      4.072049243296    -1.643062862957     1.841299694122
C      5.072327170247    -1.788566601594     0.823378327792
H      5.302844898846    -2.867166207472     0.686628491257
H      4.706236848323    -1.391414319791    -0.150650907580
H      6.012019207476    -1.265302930434     1.111729914395
Pd     0.065480496327     1.006783813920     1.057117885888
C      1.299664686319    -1.085661196372    -0.716828882641
O      1.546644317014     0.230871391210    -0.245749371716
O      2.109735892942    -1.668725404030    -1.429150768623
C     -0.067539509501    -1.558336403465    -0.170490412511
H     -0.025939559687    -2.655414648462    -0.209070901712
C     -1.209897311419    -1.089062739583    -1.047046675643
H     -2.167077651812    -1.476226638043    -0.640249715938
H     -1.261664375022     0.019696979252    -1.042560594944
H     -1.080171579666    -1.453483559093    -2.087075885544
N     -0.257922847232    -0.993490430482     1.163638380486
C     -0.488123951095    -1.640705535082     2.332015933346
O     -0.423082153975    -1.110581930395     3.471434844601
C     -0.838026683936    -3.083457929818     2.260845745010
H     -1.714939471967    -3.193151886601     1.601162731875
H      0.039366690099    -3.639578724326     1.894728084507
H     -1.094435671903    -3.432001521087     3.278483515775
N     -2.966064478079     1.216977475801     0.682987933710
C     -4.291991109200     1.138343976314     0.353393066105
C     -5.263485811297     1.363751588941     1.311701627853
C     -4.907594364252     1.666077349956     2.609531612294
C     -3.575795777935     1.738645532510     2.917512290335
C     -2.618965134946     1.492566592406     1.902546633166
H     -4.577963644038     0.902647776855    -0.664719709643
H     -6.303264571106     1.299397283927     1.039373603351
H     -5.664312038619     1.839516119761     3.369560123044
H     -3.220109213229     1.950333088170     3.905181052858
O     -1.361479746745     1.586143018761     2.318373603730
H      2.410694156165     0.647377987563    -0.459646805947

