# STO-3G

title

0 1
C      1.362026304612     2.890735953325     0.111581635269
C      2.383390262075     1.889357054564     0.173802188262
C      3.409249121386     1.849722396092    -0.811321780025
C      3.429284153964     2.785143448581    -1.848816226085
C      2.412425672235     3.773423986647    -1.929863482805
C      1.392110237150     3.817528511392    -0.975413057164
H     -3.779633344209    -0.160475690284     0.789590171561
H      2.473419756322     1.254109395059     1.053107512355
H      4.181288071578     1.087320255322    -0.741246172584
H      4.224894900327     2.760665056915    -2.589825167272
H      2.436942681355     4.508886892621    -2.730878215789
H      0.627097147552     4.589849800302    -1.028896677966
C     -0.306426877986     1.628284854406     1.321189699290
H      0.067790974845     0.940768752290     2.087854994560
H     -1.395680663323     1.619445640678     1.307259099562
C      0.331702409464     3.039461898954     1.273099652921
H     -0.426152189516     3.730545611029     0.899882058672
C      0.871078608967     3.619108239622     2.549364887035
O      0.656368911019     4.833397309160     2.809883497765
O      1.504661674368     2.771374402098     3.475996548605
C      1.949512808992     3.390942871379     4.690501175976
H      2.433438918361     2.627441501865     5.337065708992
H      2.695099093160     4.190158132431     4.476847952437
H      1.090550557449     3.825099084467     5.250889044173
Pd     0.290976694488     0.879201681741    -0.472744320406
C     -1.302102863614    -1.377980473479     0.358398576717
O     -0.215535916088    -2.051093586245     0.434441142845
O     -1.459575283632    -0.303924291764    -0.368175655589
C     -2.510898805095    -1.795016746341     1.227004196704
H     -2.112130434939    -2.224902336478     2.150027200049
C     -3.397924386211    -2.811048559961     0.542304735916
H     -4.224927592907    -3.096180359029     1.225095843942
H     -3.831439151778    -2.366061818586    -0.376565918506
H     -2.812666949283    -3.716691320175     0.280310352807
N     -3.320333438706    -0.628058059240     1.562816937509
C     -3.104280113517     0.054526185316     2.723381574854
O     -2.263279169370    -0.258705512518     3.596607482725
C     -3.968568909798     1.236893541233     2.927730499066
H     -3.707938499909     1.703100825442     3.894475192223
H     -3.801614201573     1.939700091019     2.096143447032
H     -5.016925541560     0.890940230443     2.937817742077
N      1.036478876323     0.060196481979    -2.324748004526
C      1.127736299400     0.864057633626    -3.428793747176
C      1.793115540137     0.422106253778    -4.553959430280
C      2.366221805022    -0.830148071227    -4.579891346863
C      2.250546304035    -1.620513005838    -3.467185552218
C      1.554561210121    -1.136203539358    -2.337457592301
H      0.683542685844     1.852303176678    -3.413627406863
H      1.864469570003     1.065391523413    -5.415388056165
H      2.893612277838    -1.183637724689    -5.461932975887
H      2.667818060326    -2.606879976774    -3.423349259836
O      1.509763932264    -1.988378111383    -1.336543143420
H      0.802789164837    -1.897895493544    -0.547854474004

