# STO-3G

title

0 1
C      1.419449269791     2.940862471952     0.021081538851
C      2.384891970496     1.896856154437     0.188231066649
C      3.464429673089     1.764319487917    -0.729681548238
C      3.590021710892     2.647657876215    -1.804729678129
C      2.626544837438     3.674263594128    -1.993007381956
C      1.555927698716     3.809833658959    -1.105054276580
H     -3.293789574598     0.663494716839     0.683225633533
H      2.393070903644     1.301103832384     1.099257175513
H      4.194773086778     0.973194774514    -0.577813953477
H      4.427175638858     2.553845426290    -2.492541803075
H      2.732292147295     4.368566671540    -2.823496297600
H      0.833561292485     4.612482835608    -1.239243783840
C     -0.398338400270     1.833504480987     1.158719301090
H     -0.102765970097     1.152837905125     1.967324202248
H     -1.482169797281     1.912647610033     1.108465159952
C      0.333480215510     3.197272204551     1.110144123957
H     -0.353239172118     3.922863617948     0.671856167144
C      0.829115170416     3.784868986183     2.399881674408
O      0.800338596586     5.034691016300     2.559453168237
O      1.300592350767     2.926778769602     3.412083904974
C      1.738532352006     3.567351305913     4.618362233432
H      2.086882752602     2.797619098509     5.339829848327
H      2.585460810577     4.260853364703     4.412492442480
H      0.903532223127     4.134021717895     5.090124721607
Pd     0.281973378531     0.963599041563    -0.550996711743
C     -1.571504686414    -1.157083700520     0.189019824547
O     -0.570046323161    -1.910573897824     0.444490897771
O     -1.537301321924    -0.111054461479    -0.592785113829
C     -2.913940347892    -1.370929033369     0.934219119691
H     -2.738823244557    -2.081991380094     1.745288350072
C     -4.005670341231    -1.907764105832     0.036295543284
H     -4.935840823539    -2.039546420404     0.626512736799
H     -4.205791164203    -1.180696510143    -0.778660820027
H     -3.703486427254    -2.882657089282    -0.398547157025
N     -3.323843896778    -0.046207433065     1.414713954961
C     -3.313577191045     0.476118598326     2.672329941073
O     -3.359254449733     1.710837801298     2.894202182826
C     -3.272110876323    -0.468306013005     3.809705218806
H     -2.301130931408    -0.988975693711     3.800425637190
H     -3.374381246323     0.115085745849     4.742348154581
H     -4.118922448500    -1.169296082905     3.710109416425
N      1.128180010803    -0.024268655347    -2.276028424558
C      1.368306605160     0.692503671495    -3.417179033938
C      2.103938079614     0.134189296489    -4.442698043390
C      2.597385750460    -1.146998041230    -4.331434300481
C      2.331041854382    -1.848344998097    -3.185134394396
C      1.566277540878    -1.245508136686    -2.162201226456
H      0.988082037445     1.703128225669    -3.508609577221
H      2.293252300689     0.709623328812    -5.333835666977
H      3.179605190701    -1.591625317422    -5.134198844515
H      2.679238312611    -2.851213434459    -3.037603503013
O      1.375582679519    -2.023357822397    -1.115162329940
H      0.598248343469    -1.850877776215    -0.427647461360

