# STO-3G

title

0 1
C     -0.372835069236     3.300490569708     0.582603669507
C      0.591908109470     4.069151132748     1.270442800179
C      0.428150236345     5.458045530970     1.428524984023
C     -0.708101781197     6.100301466308     0.900240715748
C     -1.679114258423     5.342946138952     0.215924974838
C     -1.510092530441     3.955470044930     0.058504328690
H     -2.221448822269     0.150695018908    -0.620117567586
H      1.470797581710     3.576721111413     1.685091291858
H      1.179040502264     6.033462419650     1.965172315521
H     -0.838292025283     7.172721629189     1.024563498455
H     -2.563536170312     5.830913070738    -0.187407615661
H     -2.272528960780     3.379821786390    -0.465418526135
C     -0.173069771703     1.803988705108     0.379363377460
H      0.513054554355     1.393932026208     1.127649894769
H     -1.133141302437     1.293805017043     0.524065804434
C      0.354460348165     1.485119919853    -1.036447670011
H     -0.383491359069     1.691837494589    -1.814057203905
C      1.679145213516     1.996713609201    -1.442764729060
O      2.002971380029     1.883139453493    -2.654673747037
O      2.641703935885     2.291789909112    -0.461124402597
C      3.911919985150     2.750324279740    -0.942177921266
H      4.576326153331     2.959777932601    -0.076587710592
H      4.401968767642     1.975265043401    -1.572916062220
H      3.795915703434     3.690038241367    -1.528105881659
Pd     0.313078230073    -0.569021320846    -1.224048323170
C     -2.439282517121    -1.748692089446    -1.218382310579
O     -1.895738308371    -0.427234621174    -1.351225608504
O     -2.106368045356    -2.590767827726    -2.042102252564
C     -3.386019733653    -1.923582676469    -0.006815248929
H     -3.249282966270    -2.973674750982     0.290846695397
C     -4.829002363531    -1.719114097771    -0.406023348939
H     -5.487363283751    -1.964059165031     0.453331190540
H     -4.986228457817    -0.654597787272    -0.676813631470
H     -5.094471148547    -2.370424859079    -1.264695419766
N     -3.139992265393    -1.017238006508     1.126991565958
C     -1.958914353276    -0.994221856842     1.664139250231
O     -0.877833522683    -1.609870951546     1.169330354805
C     -1.811984703970    -0.257575822885     2.930288490332
H     -1.530423726558    -0.983776256057     3.711185225812
H     -1.029391008773     0.509256503587     2.822903457757
H     -2.775594019035     0.220308276919     3.192085507367
N      2.201366027299    -0.820389460967    -0.559478242001
C      3.276658807948    -0.867289805893    -1.404909432242
C      4.549065097955    -1.009419534739    -0.895784269841
C      4.755925871461    -1.105675607145     0.461895365824
C      3.669349577842    -1.067898837424     1.294484056887
C      2.368695716120    -0.928227315793     0.756094307763
H      3.126107580723    -0.783520072025    -2.475160197847
H      5.388281765835    -1.042428440364    -1.571167030917
H      5.759615165491    -1.214611446912     0.864128682410
H      3.768288251141    -1.143259876507     2.358577330430
O      1.410202868781    -0.915527821549     1.618491635451
H      0.138253280909    -1.283346414635     1.421731350045

