# STO-3G

title

0 1
C      1.146183080851     3.650197423748    -0.812866204927
C      1.799764550416     4.045946438427     0.382264771078
C      1.405665282429     5.196313281420     1.085839328615
C      0.342967324926     5.991940319232     0.610897710084
C     -0.315108659132     5.618142236256    -0.577102299599
C      0.083367656616     4.464612270143    -1.278175466463
H     -4.202229758283    -0.785467414123     1.311904730514
H      2.616506907599     3.434020852692     0.766067405085
H      1.925046034109     5.471235269179     2.001586830815
H      0.036994952987     6.882728066524     1.154389939245
H     -1.132723142687     6.226306301197    -0.959107812724
H     -0.430196557445     4.189394348988    -2.198191117503
C      1.574418818583     2.426954629522    -1.557195424476
H      1.181839863349     2.403151809346    -2.579113319838
H      2.665635442584     2.329240686712    -1.576068513619
C     -0.488089884615     1.368404066410     0.375811219125
H     -0.943922844655     2.325061373696     0.166811743473
C      0.030464085234     1.280742192144     1.764025450029
O      1.256680934880     0.991241877102     1.862241368959
O     -0.631759996202     1.969852340075     2.795361087858
C     -0.054726674957     1.821307152518     4.098961125326
H     -0.670747536979     2.376006109362     4.838029228751
H     -0.033721509810     0.747586897059     4.397733444609
H      0.977803233140     2.236714490990     4.125877960833
Pd     0.896040984496     0.584931376178    -0.899257642959
C     -1.443163052597    -0.871999664197    -0.013111978264
O     -1.695694382386     0.407713800582     0.284657212517
O     -0.375148974823    -1.262318288580    -0.562869910863
C     -2.568653536384    -1.834979401194     0.410465945359
H     -2.065701485989    -2.751427054061     0.737786558311
C     -3.513647320481    -2.167850866907    -0.724218631874
H     -4.281240566269    -2.884076683998    -0.365099194832
H     -4.018601597733    -1.240359840297    -1.064176948683
H     -2.955346386246    -2.621358457276    -1.568567322041
N     -3.334487778253    -1.264821350859     1.513389790043
C     -2.667038926530    -0.986976409839     2.672572235899
O     -1.447769259706    -1.225109727671     2.833318166979
C     -3.431790563909    -0.348536001121     3.764073092687
H     -3.308835674594    -0.971234256154     4.664768217992
H     -2.996105728357     0.652952895184     3.916215903662
H     -4.498730850776    -0.267789258439     3.493502226925
N      2.432622323935    -0.415491445810    -2.014650035321
C      2.246596963788    -1.118983408931    -3.174251910518
C      3.331702711511    -1.689118625830    -3.811481688626
C      4.599627302853    -1.573134048925    -3.278083605464
C      4.749698130660    -0.877722555866    -2.105144509183
C      3.612554598403    -0.319497445277    -1.493462734904
H      1.252712704322    -1.212506814682    -3.596901698926
H      3.181292545022    -2.238715330421    -4.726888164178
H      5.455631570763    -2.026909046475    -3.770995628923
H      5.701538969998    -0.763648111397    -1.624406002175
O      3.846340238747     0.317646551609    -0.341724610013
H      2.977596481130     0.651392249102     0.041924000158

