# STO-3G

title

0 1
C      2.920700663465    -0.853065024436    -0.831541351364
C      3.060431503501    -0.848036924772    -2.235358378957
C      3.736596306407    -1.905805291890    -2.876641805715
C      4.269959333932    -2.968576349965    -2.119461349882
C      4.129114852395    -2.973631020636    -0.717010764125
C      3.455982781870    -1.915194971994    -0.074361918613
H      2.408776788197    -0.034590400031    -0.332271361828
H      2.645182730629    -0.027184531220    -2.814444641834
H      3.848505351550    -1.898457349827    -3.958509326476
H      4.793334505326    -3.782470175015    -2.616409934977
H      4.541333358166    -3.791100518352    -0.129901489876
H      3.345110960309    -1.918232906615     1.007731989409
C      2.289358804467     2.383386319993     1.201196575677
H      1.532849878432     1.987506850715     0.528225056684
H      2.719706353760     3.337739818334     0.912324149209
C      2.682248695619     1.754331342051     2.333600263902
H      3.426919656578     2.190530449559     2.983656086505
C      2.176218782536     0.446849463240     2.777550323041
O      1.395894719387    -0.208119918776     2.034885897451
O      2.635265843855    -0.082872017698     3.995837461990
C      2.077475966260    -1.349474480040     4.376006240632
H      2.511824898847    -1.666713032470     5.348275653370
H      0.972908208533    -1.275807985914     4.497782645153
H      2.311990594934    -2.131398698806     3.618336538678
Pd    -0.810270266446     0.412878890927     1.046311772744
C     -0.088623238618     0.811230362254    -1.683215621923
O      0.452950361640     1.301713054677    -2.689116489535
O     -0.307312098093     1.512719303875    -0.548219762061
C     -0.590452927613    -0.670402721567    -1.654236490547
H      0.079463104527    -1.253480421097    -2.295796873816
C     -2.007317624461    -0.776041725440    -2.175420112804
H     -2.336322975276    -1.834684797365    -2.166811078447
H     -2.687317132273    -0.184968014461    -1.527079267263
H     -2.060981247448    -0.388281222449    -3.214382155783
N     -0.604516598458    -1.125091718005    -0.257306317104
C     -0.299655532796    -2.284605841753     0.232415188433
O     -0.325907748263    -2.573312228148     1.536448875398
C      0.091336821965    -3.405244731170    -0.637061779806
H     -0.726371042122    -3.599497277358    -1.349809511991
H      1.023187227103    -3.127990450608    -1.160002603969
H      0.273601218483    -4.304289095095    -0.020092011729
N     -0.951279636782     1.690643767706     2.674730956599
C     -0.743613797183     2.951967223301     3.145325661077
C     -0.808852910577     3.180675555537     4.509884416723
C     -1.087889642148     2.147418349196     5.389262446842
C     -1.287822665857     0.884724054445     4.883993669052
C     -1.201015170084     0.700459611545     3.490498987497
H     -0.529454666946     3.761219435704     2.456903347694
H     -0.645089433302     4.177198691154     4.885069844630
H     -1.142778860259     2.330790092723     6.458884424062
H     -1.500499433130     0.037119629330     5.501334536521
O     -1.335230341680    -0.501202616431     2.959459388521
H     -0.594203536066    -1.812304157291     2.139248520845

