# STO-3G

title

0 1
C      1.689043283537     2.400084230826    -0.286033314248
C      2.993235056013     2.126694504696    -0.750345164526
C      3.776640549304     3.158619890937    -1.305924677688
C      3.263169645018     4.466471746729    -1.413271423397
C      1.959402228573     4.737778346729    -0.958452724016
C      1.173191449049     3.709232675814    -0.394188648101
H     -1.486015661060     1.522764201879     0.064369482555
H      3.398316450342     1.118482515368    -0.691676077095
H      4.782294624813     2.936116015042    -1.657169122331
H      3.870217324176     5.259275167398    -1.843930719004
H      1.552189429521     5.744068278855    -1.034423359328
H      0.172046077274     3.949272206650    -0.039837993938
C      1.519070902607     1.663642798472     2.379150722664
H      1.859142076628     2.671536127820     2.183404556116
H      2.273110439006     0.882437142794     2.432124015122
C      0.215685756760     1.368105272917     2.744161130913
H     -0.010016198673     0.378619956199     3.107298385464
C     -0.866565997727     2.349497151222     2.918869455593
O     -1.960320324505     1.962509689198     3.409731497688
O     -0.706963673680     3.653388206363     2.417808505381
C     -1.872629082898     4.487558469269     2.468263479335
H     -1.629971213624     5.487075786592     2.047874465668
H     -2.698499572638     4.046451354737     1.863517609079
H     -2.216274927627     4.625886777401     3.518609730771
Pd     0.529781935434     0.902998512334     0.429089007832
C      0.612762521111    -1.892020972449     2.308147843847
O      1.666993899938    -1.458575786015     1.602108477639
O      0.676373083534    -2.183059058682     3.519421091475
C     -0.785085860177    -1.930595394226     1.595074197984
H     -1.489471961082    -2.193824475302     2.395516279406
C     -0.867215305488    -2.992319726034     0.514768639470
H     -1.916517013265    -3.130222207718     0.190471595659
H     -0.276537174210    -2.694998253135    -0.369965493332
H     -0.486621118990    -3.961489769500     0.899344377287
N     -1.074477173557    -0.613405507497     0.989122324740
C     -2.239645609005    -0.084304782617     0.840807977327
O     -2.388151265864     1.139494106066     0.276652442011
C     -3.492827039199    -0.703102848645     1.303989775649
H     -3.625295809285    -1.672015191708     0.800092001422
H     -3.436458059434    -0.809169661912     2.400594938910
H     -4.337584334970    -0.035906956714     1.050474209685
N      0.519424014635     0.266679809963    -1.519785188346
C     -0.049677046520     0.959391601267    -2.551496428974
C      0.120343884329     0.523636756712    -3.848940241024
C      0.863028345005    -0.604050805554    -4.119442671276
C      1.431113696719    -1.281625161502    -3.072850541789
C      1.251549753065    -0.813342495088    -1.750241788415
H     -0.638903880478     1.845878040075    -2.347629262933
H     -0.332950343343     1.076392738321    -4.654856981744
H      0.998972935495    -0.946715721442    -5.141651846053
H      2.029272590750    -2.157714805242    -3.220530868366
O      1.836881863361    -1.494652053749    -0.830085817197
H      1.689009215619    -1.446001657748     0.509573927926

