# STO-3G

title

0 1
C      1.220928962937     2.692530012293    -1.067977816517
C      2.618629255224     2.705139582436    -1.260923329948
C      3.203994455109     3.665700538296    -2.112201942340
C      2.401232281165     4.608164658307    -2.783410399480
C      1.005590808419     4.588001475228    -2.598772510263
C      0.414191139332     3.633603418758    -1.743532409714
H     -1.711957217588     1.005492569061     0.055249585153
H      3.251873956468     1.969354299624    -0.769140709228
H      4.282895257994     3.667356405196    -2.253244984173
H      2.856319164398     5.344582106773    -3.441626161167
H      0.376335815648     5.311917315308    -3.113268064968
H     -0.667039959723     3.642532816164    -1.612922571117
C      0.962947554374     2.418726872834     2.047863230851
H      0.888883751593     1.725985703283     2.878409241291
H      1.971977016602     2.679118693645     1.744730123586
C     -0.135575105700     3.099644987368     1.546215766383
H      0.016524224278     3.886440085915     0.825411925192
C     -1.497217431928     3.031371300854     2.107036830420
O     -2.379219547273     3.793595237953     1.631317608853
O     -1.771843379297     2.179564107711     3.194096528897
C     -3.128334032217     2.187746759010     3.660937113593
H     -3.229646224515     1.487203889537     4.516903520273
H     -3.420594909679     3.204459628867     4.009613712554
H     -3.824028532903     1.860767333694     2.854072513801
Pd     0.466754636332     1.270249456973     0.139858505405
C      1.835132274289    -0.557468453823     2.546502265362
O      2.544243885424    -0.124196962758     1.496174927251
O      2.177691787542    -0.366158378073     3.731266244057
C      0.461600026739    -1.258739086576     2.264050678076
H      0.036043752092    -1.432372664683     3.261193304027
C      0.621613226098    -2.597154480996     1.565101472097
H     -0.310858370551    -3.187682705103     1.640605091131
H      0.843929180222    -2.451645034629     0.492046420274
H      1.442127362313    -3.180846534100     2.032453627671
N     -0.390603792260    -0.384009852579     1.426970706164
C     -1.676973848895    -0.367243039969     1.416194138532
O     -2.359912434903     0.461690954100     0.588751132607
C     -2.525111058393    -1.175767751667     2.308971121077
H     -2.346414043216    -2.241805605716     2.105953838966
H     -2.281296680542    -0.906839384487     3.349903522825
H     -3.586297113081    -0.938887252978     2.107823064314
N      0.449063041000     0.096137267699    -1.561404058522
C     -0.441574029354     0.274871653447    -2.582716283401
C     -0.310545972698    -0.452456739882    -3.747072321149
C      0.714999854235    -1.359172139998    -3.896457872765
C      1.601755709036    -1.520427025590    -2.864962433621
C      1.454320628120    -0.756106991275    -1.683891504969
H     -1.255183396397     0.982138401439    -2.472451185040
H     -1.019249965164    -0.304803379494    -4.544909918916
H      0.820856834503    -1.931309085213    -4.814197729865
H      2.427865711176    -2.199277669548    -2.926101633893
O      2.343774853480    -0.953782811936    -0.776302367105
H      2.393423956528    -0.498641992125     0.472803717727

