# STO-3G

title

0 1
C      0.015144832331     2.774590029157    -1.108459805732
C      0.557425624013     4.071890594192    -1.171504455270
C      0.100064470820     4.973038683460    -2.157938519907
C     -0.892790873890     4.586835071508    -3.075831464279
C     -1.432254703662     3.287269308922    -3.006667478909
C     -0.980480205029     2.380264419517    -2.028329967944
H     -2.703892827053    -0.348305366312     2.784873914229
H      1.329529792546     4.406042621297    -0.485116536948
H      0.524791256494     5.974064068172    -2.200918466399
H     -1.242883436633     5.286927422643    -3.830706238479
H     -2.205781304902     2.978219776310    -3.706799968254
H     -1.407563308528     1.383181948462    -1.972589699589
C      2.285389082593     2.298760314554     1.050176583593
H      2.876162923844     1.456807490693     1.402011699678
H      2.759444681753     2.939755928840     0.316844984839
C      1.127545066422     2.718869017302     1.750351335947
H      0.683008776726     3.669800686464     1.502223171085
C      0.684162395213     2.169206450894     3.042506371834
O     -0.236884137859     2.764388449719     3.658345263878
O      1.235148593069     0.970047906722     3.515887830110
C      0.636561170027     0.434194944680     4.705076686608
H      1.102914460482    -0.546464289762     4.942395578921
H      0.787415664160     1.118724508728     5.569219569518
H     -0.454931085374     0.260468035071     4.560455520182
Pd     0.628700834709     1.298828643025     0.074474726268
C     -0.888209495711    -1.567561881176     2.149200969040
O      0.401861199788    -1.828079144140     2.262772013726
O     -1.672267004118    -1.586565765503     3.146286356452
C     -1.541126985667    -1.123181364639     0.787708352205
H     -2.596991626840    -1.410907479375     0.910449355871
C     -1.023592326814    -1.799629329272    -0.468181114805
H     -1.807109930458    -2.464874264322    -0.887064933814
H     -0.782045991538    -1.046636323363    -1.244391708205
H     -0.134142268631    -2.426204659113    -0.264106241571
N     -1.485204033437     0.360787213998     0.605832533758
C     -2.301074477355     1.024770015981     1.379464398236
O     -3.031076489453     0.533500945562     2.396144754288
C     -2.539127325308     2.439385207459     1.082191406283
H     -2.928034055659     2.512315691243     0.053456917141
H     -3.283023522875     2.833963992400     1.797829932185
H     -1.600389201906     2.996411738099     1.188723288599
N      1.607976577772    -0.015049633760    -1.492801090246
C      1.931915801329    -0.160847349702    -2.812150899294
C      2.767085423653    -1.194070428421    -3.198704708364
C      3.281097102809    -2.074589288741    -2.264583191982
C      2.947723797124    -1.898518994649    -0.944349872551
C      2.094687679780    -0.830159269344    -0.600597299795
H      1.527013627580     0.524696540356    -3.547814296222
H      3.016323742207    -1.310078033205    -4.240924732396
H      3.938139256374    -2.885390082531    -2.568309357450
H      3.318610669066    -2.534120818761    -0.165562992328
O      1.777502206492    -0.639369113113     0.666288689851
H      1.068893369998    -1.405542227139     1.530864606121

