# STO-3G

title

0 1
C      0.421759410724     2.646954706696    -0.030253065817
C      1.742134195300     3.022692654094    -0.359731669994
C      2.031553560987     4.356339934509    -0.713383701220
C      1.006750784655     5.322595320849    -0.752971916019
C     -0.310262683661     4.949267900778    -0.426074407596
C     -0.604348749629     3.617022514422    -0.062348494180
H     -2.971761643321    -2.902022063836     1.156718479163
H      2.543210097698     2.286314074925    -0.341261481313
H      3.055393869519     4.633816722983    -0.957665399025
H      1.233238882463     6.349448524918    -1.030828442419
H     -1.108625995830     5.688796431805    -0.445812209264
H     -1.628081402545     3.355942300164     0.200442840524
C     -0.938806954141     1.083678024308     2.477622883200
H     -1.638033816318     1.913417075842     2.441236251526
H     -1.371676358570     0.097925645994     2.605488931665
C      0.425716067000     1.270601354709     2.663190059816
H      1.077178870486     0.419443383920     2.802459718499
C      1.056184260158     2.578134072811     2.922007630875
O      2.307280460401     2.638361232297     3.043351939871
O      0.252325914815     3.729095791042     3.018094437689
C      0.957395904734     4.971987873509     3.139974685216
H      0.226692897574     5.806736010759     3.194033983452
H      1.576492160728     4.987596278237     4.065581288648
H      1.611313955435     5.141282457427     2.254199358360
Pd    -0.059079931709     0.745087055519     0.380132385926
C      0.684825713900    -2.056140457245     2.283127363029
O      1.667224385763    -1.392494312474     1.675803277314
O      0.651010906081    -2.289315952929     3.509750725247
C     -0.532334737480    -2.479265180025     1.402123387873
H     -1.267889952470    -2.845531149620     2.137401130307
C     -0.201247781200    -3.608654292318     0.442423251612
H     -1.126471490252    -3.973523525311    -0.048305414590
H      0.491325037096    -3.260549073519    -0.346536989445
H      0.265331930194    -4.452714687145     0.991588950718
N     -1.036937276672    -1.322477896122     0.615674534761
C     -2.272002475863    -1.293358804644     0.252279551502
O     -3.250000115853    -2.198506146396     0.533787398180
C     -2.723886733755    -0.168074985695    -0.568176016693
H     -2.142503570909    -0.187191815154    -1.504348588899
H     -3.796387180227    -0.302916259675    -0.801182186193
H     -2.578370171820     0.770034912172    -0.011192611037
N      0.529382980895     0.334732244321    -1.564292736183
C      0.116783252434     1.054055714664    -2.654060343395
C      0.612146832945     0.761130370514    -3.905872345529
C      1.535947058866    -0.244348873524    -4.077059567938
C      1.953152471292    -0.941356677757    -2.975653447136
C      1.437758249597    -0.621368245112    -1.696901289874
H     -0.619549459155     1.840481901251    -2.537296831172
H      0.274937576552     1.330772528034    -4.756181183871
H      1.930936689582    -0.474877148192    -5.062941195902
H      2.682929511902    -1.723247887430    -3.042095376539
O      1.922129647654    -1.311477788437    -0.726992885023
H      1.724526873408    -1.316331431606     0.574355358799

