# STO-3G

title

0 1
C      1.344826794013     2.245270995611    -0.211897301969
C      2.700947643952     1.901927603108    -0.025964379824
C      3.716554789187     2.785701924545    -0.443142140026
C      3.388934180437     4.009342221587    -1.060443312796
C      2.036902189753     4.349390244087    -1.250682352532
C      1.014593087421     3.472517629497    -0.825728795287
H     -1.748713364835     1.443797037232    -0.977384356744
H      2.971290997118     0.955197028614     0.437980830929
H      4.758440256297     2.512083173535    -0.288322592722
H      4.175747805310     4.685503180146    -1.386457358106
H      1.771364232170     5.293899417057    -1.721425037503
H     -0.023383158833     3.768974873561    -0.969121570130
C     -1.283994994709     2.375135574879     1.704198989846
H     -1.400446178243     3.332647303482     1.205470416733
H     -2.173710221073     1.761793496740     1.789103793220
C     -0.152683148205     2.061214707028     2.445654974667
H     -0.107800869576     1.139891817107     3.009044901196
C      0.953374947519     2.999582374153     2.710304740320
O      1.945445533389     2.600461642225     3.374048316896
O      0.866111459759     4.325124294135     2.246780151829
C      2.041661355458     5.126107994398     2.427846432351
H      1.864235304894     6.139919685665     2.010411452179
H      2.288492724901     5.229665197975     3.508747408074
H      2.908492305862     4.677880843674     1.890656970720
Pd    -0.108251911532     0.963939543583     0.324092488959
C     -1.228771687885    -1.204888787611     2.700979376075
O      0.078470517746    -1.038899275441     2.454096823939
O     -1.730613930869    -1.046297677590     3.832158298231
C     -2.169128051493    -1.485766357914     1.485096959138
H     -3.176048100560    -1.522603174648     1.921150512164
C     -1.891231847085    -2.810005269912     0.798163245053
H     -2.739190208721    -3.089881064436     0.144431008408
H     -0.986999300450    -2.741959998686     0.167701758679
H     -1.750756954182    -3.612341490935     1.552292672073
N     -2.006419423186    -0.387128272832     0.508456496115
C     -2.915579866773     0.059561199378    -0.285496436827
O     -2.681655272493     1.105546818294    -1.114784943867
C     -4.289516102791    -0.469431585132    -0.350248009609
H     -4.249078383381    -1.526582439541    -0.653853930951
H     -4.763209949322    -0.343039361396     0.636861990032
H     -4.861473589804     0.102479487737    -1.105013663875
N      0.614655634686    -0.220135989226    -1.191118089806
C      0.641506809571     0.157892295188    -2.504408489271
C      1.276224105898    -0.636184819961    -3.436285681940
C      1.890802575671    -1.808887450382    -3.057543034728
C      1.857504121569    -2.169221649323    -1.736252292502
C      1.207929076851    -1.336753910724    -0.794668251478
H      0.157214137926     1.077426367317    -2.812022673524
H      1.292143617596    -0.328720831883    -4.468639720479
H      2.394470699456    -2.433243890217    -3.790557107051
H      2.327749633924    -3.062563170839    -1.378308468479
O      1.240381215652    -1.739516898581     0.425173733133
H      0.554942809855    -1.328554209149     1.519791716679

