# STO-3G

title

0 1
C      1.319263251170     0.688075789196    -0.124687034617
C      0.792684943427     1.501476995650     0.918046287833
C      0.958224890113     1.112098632539     2.274426470534
C      1.653184753017    -0.062864838026     2.592242574383
C      2.184430779955    -0.871941854662     1.559796672965
C      2.012858037546    -0.504228891784     0.218351436364
H      1.293053762856     1.017270325489    -1.157160245927
H      0.365356151722     2.474714071678     0.700934063546
H      0.554326984417     1.740546689139     3.064367338762
H      1.784513085708    -0.353987188105     3.631803846474
H      2.722169658796    -1.784312909906     1.806533996205
H      2.425368635931    -1.125885199100    -0.570337826395
C      0.235549138140    -0.450780877784    -3.268007668079
H     -0.318654396652    -0.759818749612    -2.384064224731
H     -0.113460657433     0.472926115194    -3.722939473689
C      1.279962004305    -1.143899222192    -3.769571087749
H      1.795577323140    -0.786456253194    -4.649861939567
C      1.785835082553    -2.407899150856    -3.211204051955
O      1.280117807712    -2.874809735580    -2.151845110769
O      2.871081352388    -3.039922501263    -3.841564378049
C      3.332189226378    -4.254759948478    -3.233965002415
H      4.185039700457    -4.658422209347    -3.821675934129
H      3.685253288836    -4.068504700465    -2.194455275812
H      2.525431669335    -5.022347872288    -3.221469195457
Pd    -1.062770466961     0.275491550410    -0.170664686202
C      2.160351586512     4.164917543516    -2.637897475430
O      1.639147204935     3.159225937742    -2.258642219379
O      2.673561105705     5.172982520680    -3.011169284000
C     -1.650871157684    -1.461201208838     0.840049923997
H     -1.678657620816    -1.370809760448     1.930305433840
C     -1.076291193429    -2.735493283837     0.316111061677
H     -1.706425741214    -3.586129633048     0.645387182516
H     -1.050257654623    -2.719671963353    -0.793348501174
H     -0.043863593412    -2.866783839017     0.698535573549
N     -2.708515069074    -0.996841163584     0.060966024291
C     -3.903596542946    -0.464049553024     0.498167645838
O     -4.407372964950     0.602729133820     0.083189411603
C     -4.689771551276    -1.300088168889     1.433669547674
H     -5.678098690624    -1.466547395389     0.969672556997
H     -4.191016436152    -2.270399853225     1.596320921261
H     -4.807512807769    -0.743856041044     2.379480182274
N     -1.682936979208     1.718104883518    -1.777109138100
C     -1.336819452457     3.037029674111    -1.918384692937
C     -1.805703913162     3.765805033117    -2.992922508488
C     -2.621429819220     3.180830589530    -3.934879143106
C     -2.965716756456     1.865995983593    -3.765382432319
C     -2.481167777287     1.165878506520    -2.641596267917
H     -0.695847343242     3.510673715417    -1.186163838520
H     -1.507851126738     4.796562036568    -3.100657356937
H     -2.984805067868     3.748510625194    -4.787340811551
H     -3.610273750400     1.353022841874    -4.450748466432
O     -2.887193963976    -0.097722218200    -2.589386642871
H     -2.725804419208    -0.550545406518    -1.698333890642

