# STO-3G

title

0 1
C      1.137073433430    -0.187978806844     0.138339811779
C      0.788970667069     0.810571709713     1.091363489895
C      0.807732022733     0.502019747219     2.478600861915
C      1.181210438014    -0.776882327956     2.912966884580
C      1.533039304391    -1.772175325520     1.969036568863
C      1.503672137835    -1.482589995038     0.598446423668
H      1.230113166358     0.050185702175    -0.913042849084
H      0.622327832897     1.838527386531     0.783020169260
H      0.545373948529     1.271065593681     3.201087785679
H      1.204295049772    -1.006009139996     3.975870171709
H      1.829442139390    -2.761970242518     2.308415995505
H      1.792881483051    -2.242262117087    -0.124870132466
C     -0.174318384764    -1.842058064398    -2.625274023952
H      0.197406570821    -2.585344392978    -1.924833762731
H     -1.244633398230    -1.666657720759    -2.611701707633
C      0.629077887113    -1.144771421600    -3.461597441045
H      0.194282017342    -0.402494791202    -4.119857407518
C      2.090404916908    -1.299778404042    -3.553123109552
O      2.681158870115    -2.108719405147    -2.783743760597
O      2.777269320008    -0.634754672203    -4.582741591887
C      4.207899602782    -0.725399938767    -4.540228107216
H      4.637875239388    -0.134368028934    -5.377328178668
H      4.601650090366    -0.303355518449    -3.587401128469
H      4.542412867915    -1.781698225712    -4.646352277097
Pd    -1.256584613527     0.022872714956    -0.024167640336
C      3.259664630598     2.288001585745    -2.750439214170
O      2.357261284187     1.644328799669    -2.304642133248
O      4.163254940501     2.925728889835    -3.192844581994
C     -2.370355421045    -1.240106857374     1.212657743059
H     -2.399858284173    -0.949283727508     2.267376132385
C     -2.193054850071    -2.699821394244     0.953189339168
H     -3.062644451425    -3.252479127064     1.363570644156
H     -2.132713172913    -2.889157535092    -0.138286968148
H     -1.262799560632    -3.055122311436     1.441156978726
N     -3.221806579132    -0.639463016928     0.286284345985
C     -4.203858681247     0.297038361916     0.541247531989
O     -4.357493215675     1.362224053368    -0.095785953845
C     -5.213572646070    -0.069429907252     1.560340703414
H     -6.202934513783    -0.017684773324     1.071905329884
H     -5.037965977223    -1.094203590057     1.928226241980
H     -5.161475752237     0.667883697423     2.379928149983
N     -1.341178736602     1.247647860286    -1.894171632287
C     -0.559202565024     2.319910971677    -2.236301190261
C     -0.711851922924     2.922888533620    -3.468792841515
C     -1.644216624409     2.455842111704    -4.367646717268
C     -2.424242619142     1.392259253422    -3.996787603754
C     -2.246511122946     0.821009405519    -2.720302765341
H      0.173879585981     2.699075542970    -1.535672422157
H     -0.073659498351     3.751339562526    -3.731705679655
H     -1.759312523678     2.920542000626    -5.343250811642
H     -3.178131010567     0.986652101633    -4.641106650935
O     -3.052565031959    -0.210888962177    -2.479853922917
H     -3.080843778920    -0.496818241605    -1.508254749124

