# STO-3G

title

0 1
C      3.213670390959    -1.464752012916     0.282050899528
C      3.267113412654    -1.480053421487     1.703603444098
C      4.361366014764    -0.876049371558     2.374070029281
C      5.387241095191    -0.270271689679     1.633583899475
C      5.331126826963    -0.246722851211     0.215739859844
C      4.257365450123    -0.841259468437    -0.455771344230
H      2.469415442323    -2.057500653754    -0.238163606964
H      2.509689306487    -2.030191966896     2.252861292226
H      4.414241563303    -0.912087875050     3.458978754352
H      6.236924055160     0.178400070887     2.143071368024
H      6.129104618145     0.227871470593    -0.350271705278
H      4.215105332490    -0.834168186605    -1.542582244465
C      0.916713913580    -1.472075356996    -2.273991072170
H      1.760204737884    -2.149350107184    -2.402682512418
H      0.215706005144    -1.733429539738    -1.488657545595
C      0.762750534777    -0.356968262216    -3.023910050195
H     -0.078959911234     0.299527435557    -2.854178965915
C      1.705426753256     0.096718560513    -4.060769984923
O      2.771546652246    -0.547541868540    -4.267694598666
O      1.331990024062     1.172422250757    -4.886466283130
C      2.316518354778     1.600974574321    -5.836693749835
H      1.916086594490     2.458126325835    -6.418973909860
H      3.243127031580     1.935575505359    -5.317360257212
H      2.564279128399     0.780551652515    -6.547715110423
Pd     1.269040001501    -0.050176959982     0.651168546646
C     -0.834839114080    -1.656779272886     1.636231822472
O     -1.334013679357    -2.480943813468     2.421222135849
O      0.394283614606    -1.794377834530     1.099507353498
C     -1.630681065691    -0.408818059816     1.142573370920
H     -2.131419293308     0.013039318158     2.025265140361
C     -2.678688528024    -0.869749016579     0.136942615464
H     -3.401269795361    -0.066532797267    -0.096414699393
H     -2.180376527216    -1.194636232019    -0.799770557079
H     -3.256663517482    -1.724270896112     0.550051373561
N     -0.698952920288     0.552572943038     0.489209957012
C     -1.023636896353     1.633344003151    -0.207212932485
O     -0.288041753847     2.183284082748    -1.106973519293
C     -2.290154774763     2.354884825635     0.054088096338
H     -2.035917321282     3.419116263882     0.205288215571
H     -2.927856488953     2.254297780295    -0.840323672800
H     -2.795792800415     1.983434579432     0.958534946833
N      2.342246882602     1.712073246169     0.500492519885
C      2.995772380955     2.059594245292     1.651983235436
C      4.028878241887     2.974143623440     1.613558526237
C      4.419049630590     3.538551531849     0.418967686036
C      3.732284449474     3.199634818874    -0.716393384750
C      2.660499449219     2.284174937179    -0.634664045887
H      2.711571029208     1.601321804410     2.591854251076
H      4.546081744468     3.228053574876     2.523581081246
H      5.241131684683     4.248057123636     0.380811379397
H      3.962424823265     3.623214507702    -1.672780472545
O      2.005936297137     2.070999372475    -1.744023901477
H      0.917465438795     1.954390055566    -1.505465766693

