# STO-3G

title

0 1
C     -0.437648986867     2.324891251721    -1.701297319898
C      0.777991111323     3.030508387156    -1.926223721908
C      1.362653993109     3.052271647519    -3.200186449378
C      0.752842976971     2.347401039477    -4.268255958103
C     -0.438560890247     1.628774402686    -4.060575584901
C     -1.045381627921     1.634817048124    -2.785606105339
H     -1.058104859820     2.584943362455    -0.819557023029
H      1.229324088162     3.587841251510    -1.108193288296
H      2.271548261798     3.623376033760    -3.375413108318
H      1.202213522113     2.377143571230    -5.258741546451
H     -0.910285808871     1.102921248180    -4.886812075661
H     -2.013813476587     1.163813765878    -2.636366959796
C     -0.239970412731     2.295996395166     2.322157819775
H     -0.647633783715     1.619631257368     3.071913316663
H     -0.950224119392     2.696816904455     1.605630199021
C      1.071929216315     2.624664842241     2.276590803077
H      1.441537433464     3.269092937065     1.487575046301
C      2.090402894816     2.142290871622     3.223215372088
O      3.293418131224     2.471127257606     3.037966014864
O      1.698237231214     1.410630443805     4.359761010612
C      2.763874636488     0.856722635159     5.142269206765
H      2.335324349798     0.292477979410     5.997959111444
H      3.370969590319     0.150697877644     4.530991819965
H      3.419435406315     1.660990561923     5.546114217632
Pd    -0.402978513671     0.438742183560    -0.250137407763
C     -1.712961306743    -1.372028151683     1.594733718705
O     -1.937377546584    -2.049078923810     2.605353503829
O     -0.462302855240    -0.979608990209     1.223758534208
C     -2.798723380361    -0.849258401921     0.609711020374
H     -3.753305475811    -0.892086213275     1.147000985743
C     -2.903986873896    -1.715603391397    -0.626319878016
H     -3.690118723386    -1.310819102257    -1.296683751448
H     -1.937650804499    -1.719547039862    -1.170742362180
H     -3.169065160279    -2.755841609868    -0.342447685240
N     -2.393732887261     0.502039122980     0.174452149089
C     -3.074759421719     1.647709332831     0.356616102860
O     -2.587236816091     2.807298303924     0.159384439067
C     -4.493563362980     1.575403311752     0.779877597154
H     -5.042064759636     0.939557460680     0.064704028070
H     -4.535178025173     1.181512156391     1.808832578419
H     -4.919542147012     2.596372081659     0.767118732391
N      1.645269142853     0.055336432362    -0.471380861623
C      2.242465807230     0.176634949637    -1.697725781284
C      3.613938252329     0.084941269035    -1.816402440552
C      4.398412965387    -0.136428368702    -0.706869979147
C      3.777625218546    -0.309763892098     0.500417550750
C      2.371728800625    -0.232117965877     0.578794693056
H      1.637252349279     0.330009153346    -2.578613142144
H      4.070702630016     0.199365152344    -2.785472165922
H      5.480440069121    -0.193556223928    -0.790481292389
H      4.327077204998    -0.503860254134     1.400126066400
O      1.885579180063    -0.468523006948     1.776520970392
H      0.871795895250    -0.685849543404     1.786921128626

