# STO-3G

title

0 1
C     -0.162740917841     2.409363293339    -0.936503261520
C      1.025430784341     3.051076424918    -1.385960975676
C      1.114292472580     3.548795691915    -2.693798287087
C      0.022907735151     3.390389153077    -3.583986553926
C     -1.153862286954     2.743677065657    -3.162823129622
C     -1.255684511695     2.274660239437    -1.835515964288
H     -0.365152362371     2.347146956982     0.156743771058
H      1.851208836817     3.183878360204    -0.690610815514
H      2.010341723133     4.071085849957    -3.021400380403
H      0.090898541752     3.787168768123    -4.594925150437
H     -1.994027769106     2.640009599718    -3.844880982992
H     -2.191140704590     1.857999918624    -1.469864962623
C      2.302801652465     1.296155156263     1.831774243553
H      2.588247256883     2.344562099437     1.788063360678
H      2.810240647137     0.622204015339     1.148212757156
C      1.366392748516     0.826772216037     2.687253732185
H      1.096414868961    -0.221633939325     2.670260105286
C      0.629542052635     1.653344768986     3.654960664448
O     -0.282240135849     1.113978429159     4.340991968588
O      0.989802367397     3.000616410603     3.845647740762
C      0.103436607008     3.769946297543     4.668692071297
H      0.478223313638     4.813444456402     4.736177137996
H     -0.917530595980     3.796505140575     4.223357677688
H      0.052000709204     3.349269736634     5.698312349741
Pd    -0.024657424502     0.133174220245    -0.313029619337
C     -0.861638578098    -2.159939462378     1.263742397064
O     -0.810274472389    -3.168184923714     1.978147315495
O      0.199965737259    -1.714547134368     0.535050826216
C     -2.108634887956    -1.248641952484     1.086006325550
H     -2.737137392482    -1.418227842569     1.968274638517
C     -2.902469571415    -1.620202474077    -0.147859812405
H     -3.790908626344    -0.960545257504    -0.229179064338
H     -2.276408096896    -1.488980375710    -1.053802806118
H     -3.239223701992    -2.676301026804    -0.082705441435
N     -1.645425698928     0.144418461647     0.917683646163
C     -2.001720911326     1.204263625634     1.669210291191
O     -1.441647984957     2.344290484563     1.602340044332
C     -3.132769297273     1.063305243836     2.617246196390
H     -4.015343158455     0.696084244825     2.068612527272
H     -2.820136972234     0.381298181012     3.426884540103
H     -3.351113879741     2.054272092718     3.056231255698
N      1.661371995697    -0.264891935878    -1.500395487313
C      1.756370047509     0.257266321564    -2.762989748878
C      2.922361735575     0.116825520768    -3.487375298232
C      3.998781276307    -0.558113059091    -2.957457685728
C      3.866622105638    -1.111622335884    -1.712203092259
C      2.650637190840    -0.967850814705    -1.011799374374
H      0.911585659390     0.769285720366    -3.199888656323
H      2.986115083339     0.543646015834    -4.474865021707
H      4.921253379650    -0.667713671896    -3.521626063226
H      4.652539253061    -1.680698261880    -1.256004389698
O      2.617220127185    -1.591239224408     0.147152991306
H      1.652754579381    -1.752556963758     0.508939087919

