# sto-3g

title

0 1
 Pd                -4.62426085   -1.87872044    0.47517592 0
 C                 -2.98802761    0.27754204   -0.16368205 0
 O                 -4.26513900   -0.06422529   -0.23667088 0
 O                 -2.61588939    1.41817181   -0.30713650 0
 C                 -1.95695869   -0.88458396    0.07187187 0 14 15 3
 H                 -1.29955448   -0.57100231    0.90276981 0
 N                 -2.71852698   -2.06727664    0.45562784 0
 C                 -2.64730809   -3.10375818    1.28860702 0
 O                 -3.77697898   -3.65613820    1.49919780 0
 C                 -1.39585316   -3.61405970    1.93560216 0
 H                 -0.97569575   -4.43585899    1.33459471 0
 H                 -0.63145468   -2.83164537    2.03426245 0
 H                 -1.65726039   -4.01679773    2.92407607 0
 C                 -1.06254747   -1.11368103   -1.20489311 4
 C                 -0.12138335    0.09324912   -1.38118199 4
 H                  0.51014238   -0.05783621   -2.27145504 4
 H                 -0.67840542    1.03131159   -1.49579012 4
 H                  0.54854536    0.20402581   -0.51202126 4
 C                 -0.20227968   -2.37630232   -1.01715879 4
 H                  0.43790025   -2.30431522   -0.12288166 4
 H                 -0.81577965   -3.28640659   -0.93885413 4
 H                  0.46349853   -2.50362087   -1.88535012 4
 C                 -1.94458739   -1.28679928   -2.45507757 4
 H                 -2.65787421   -2.11699361   -2.33180094 4
 H                 -2.51579539   -0.37326225   -2.67973411 4
 H                 -1.31723682   -1.51083292   -3.33247930 4


