# STO-3G

title

0 1
Pd    -4.607034946365    -1.933481324166     0.261573358542 0
C     -3.019874278895     0.286469501241    -0.285144851990 0
O     -4.269140315602    -0.118136014057    -0.456337243853 0
O     -2.690019958593     1.438442715001    -0.439741721304 0
C     -1.962060387952    -0.818644003805     0.078485474291 0 14 20 3
H     -1.403153993448    -0.462672836312     0.963745349219 0
N     -2.701714472768    -2.028289230037     0.409894526460 0
C     -2.647134122486    -3.058617391351     1.250553691190 0
O     -3.763371238968    -3.659541012047     1.382586345010 0
C     -1.419158754379    -3.512429229868     1.978906210727 0
H     -0.945986146760    -4.337167331734     1.422734697866 0
H     -0.683562281517    -2.704946384693     2.094714659229 0
H     -1.719475353441    -3.897389305022     2.963556007350 0
C     -0.963090213443    -0.996373450315    -1.114855438949 4
H     -1.574841584592    -1.013848812268    -2.035939069031 4
C     -0.011191084442     0.205908944994    -1.179840661809 4
H      0.585926111664     0.184794286674    -2.103261055660 4
H     -0.564574546186     1.152670452847    -1.149835728714 4
H      0.689604703607     0.189982539656    -0.326537833136 4
C     -0.197483663201    -2.331262564532    -1.054686097080 4
H      0.432031925810    -2.348494308070    -0.145525630640 4
H     -0.921981603859    -3.154499653457    -0.952670185296 4
C      0.677430731975    -2.611876989732    -2.279619365086 4
H      1.501153733748    -1.888863672618    -2.380463275039 4
H      1.128017341877    -3.615015418080    -2.215606714613 4
H      0.084945778221    -2.573593608256    -3.209039077695 4

