# STO-3G

title

0 1
C      1.342530447163     2.870085750679    -0.512304300005
C      2.697261178894     3.253400182651    -0.605694407486
C      3.040957784289     4.522166779290    -1.118984006244
C      2.037451646685     5.412094449425    -1.547485610031
C      0.684985190888     5.029230903183    -1.459430975741
C      0.335366503042     3.763219974031    -0.944731748106
H     -1.232815884195    -0.355231855478    -0.703074868733
H      3.487438292943     2.576125230627    -0.285644345871
H      4.088750085240     4.810153773428    -1.179768579702
H      2.305804921421     6.390716120042    -1.938542288842
H     -0.096922606679     5.712560753609    -1.784545248698
H     -0.716945282647     3.489660138641    -0.881351219763
C      1.318787263872     1.405661401654     2.309148550479
H      2.169446259017     2.074947777115     2.399467752335
H      1.484421788553     0.351841845017     2.515799441961
C      0.014548684537     1.876511056331     2.157047826582
H     -0.801735383196     1.169504451392     2.206128026218
C     -0.360350528395     3.301588596553     2.196671366880
O      0.516156270620     4.174382705604     2.434674296401
O     -1.690416827643     3.657203815060     1.917425226586
C     -1.975278562803     5.063320838907     1.920848034186
H     -3.049658479451     5.222502538554     1.685225405703
H     -1.769790619369     5.506199683961     2.921934026588
H     -1.366893395402     5.592512078006     1.152087093576
Pd     0.852476027390     1.048207641108     0.145081306184
C     -0.903535093245    -1.456442187377     0.894058144459
O      0.394670420046    -0.951303519399     0.919173388390
O     -1.550833995788    -1.218400761931    -0.351813133570
C     -1.016435967556    -2.947067146400     1.411802589705
H     -0.004331323988    -3.318711953227     1.606149909150
C     -1.735891373309    -3.898489012720     0.484548674194
H     -1.771773451389    -4.906320947507     0.946715808701
H     -2.773575133751    -3.540624065727     0.325810412960
H     -1.207700804730    -3.954985220970    -0.489095279629
N     -1.785557050581    -2.881652739067     2.677922402627
C     -2.088585480137    -1.651729502768     2.867567130732
O     -1.683096126167    -0.691356711605     1.964557922982
C     -2.866525839387    -1.232823571626     4.029142106842
H     -2.305450571436    -1.531393713746     4.930403316685
H     -3.006480110548    -0.139435275770     3.988560713765
H     -3.836993895813    -1.757149303390     3.989933575972
N      1.283066125407     0.210255992465    -1.755719755902
C      1.215714503373     0.930627284626    -2.921047206475
C      1.805389755645     0.450455319449    -4.071729038713
C      2.458100520963    -0.760458869808    -4.074740614148
C      2.497693431231    -1.479689796143    -2.911528481451
C      1.879105093071    -0.968802359424    -1.749620912441
H      0.692553874238     1.877386515658    -2.949537124194
H      1.747350557381     1.031883982601    -4.977384953965
H      2.921425916631    -1.141193490829    -4.981156355090
H      2.973894748379    -2.438091397748    -2.852966960850
O      1.953178152691    -1.749363292625    -0.708283183050
H      1.243903463128    -1.478612010394     0.138739424451

