# STO-3G

title

0 1
C      0.514327436173     2.856831294229     0.056459940564
C      1.802621876906     3.357304886940    -0.237493303648
C      1.966112759027     4.694483694493    -0.655092089592
C      0.846762292166     5.538799422512    -0.788993976943
C     -0.438056300634     5.039323188174    -0.502282648088
C     -0.607365020258     3.703390277096    -0.079819534178
H     -0.607737740483    -1.369477117022     3.349013463467
H      2.677517374835     2.715732694126    -0.141341882725
H      2.964126607475     5.069585156175    -0.874322882766
H      0.973638042286     6.569663507464    -1.111531352551
H     -1.308767501597     5.684582159664    -0.602635118268
H     -1.609626578817     3.336715074876     0.133446406407
C     -0.717001280260     1.484120764655     2.535399630480
H     -1.207289238673     2.446760009718     2.439747262500
H     -1.375611053244     0.625243982081     2.582345303189
C      0.650246219243     1.391563426640     2.803521385421
H      1.097630193757     0.425544779500     3.000566344008
C      1.522124195504     2.549685319172     3.065176383017
O      2.763284725294     2.362387382872     3.153714752216
O      0.969585315241     3.841937044523     3.102289965197
C      1.905363510285     4.922723077588     3.213552358721
H      1.352807228179     5.886638912222     3.224349254746
H      2.491889738563     4.844285375156     4.156861541110
H      2.599838503375     4.934224595914     2.343245146755
Pd     0.292410840287     0.946949975729     0.596860506216
C     -1.006291849443    -1.776435588533     1.472769008319
O      0.217623838948    -1.166926558800     1.277232007311
O     -1.236945634159    -1.951166185506     2.870955947752
C     -1.449779851552    -3.098869006482     0.718682567333
H     -1.818838159426    -3.788748970759     1.485383848392
C     -0.385065886447    -3.785256605222    -0.101709665542
H     -0.779048411984    -4.756044545362    -0.466475777137
H     -0.136347599745    -3.164478203452    -0.984653159700
H      0.520920723258    -3.966203078463     0.512025566638
N     -2.554412634194    -2.720804969542    -0.194228429121
C     -2.808219425880    -1.483395181547     0.024318311101
O     -2.072433076913    -0.774245847619     0.944867715451
C     -3.868841624909    -0.792382242437    -0.702827406505
H     -4.810190974089    -1.331610001959    -0.500930786057
H     -3.927189728685     0.249526919659    -0.347377429678
H     -3.626246617998    -0.837706946231    -1.778549699043
N      0.872490953709     0.329692274466    -1.341501704042
C      0.639193206034     1.086873895772    -2.461241864010
C      1.225941698335     0.748983348162    -3.662922236531
C      2.046242615422    -0.351932776110    -3.758786371793
C      2.249006556620    -1.109413319494    -2.637188619332
C      1.626205578143    -0.744215470073    -1.424356962749
H     -0.011501529073     1.951168344792    -2.411471413548
H      1.039141149861     1.357311095505    -4.532860208193
H      2.511880743028    -0.619591831510    -4.703669737266
H      2.861423397759    -1.989245785481    -2.648722194315
O      1.854001793456    -1.561535257286    -0.429374437291
H      1.138664787504    -1.478418039976     0.418961617977

