# STO-3G

title

0 1
C      1.205717663061     3.695778937578    -0.150737291520
C      2.234555661961     4.664004883038    -0.206384961524
C      2.925337219034     4.914519515291    -1.403680935231
C      2.620329712567     4.189969423126    -2.578811322704
C      1.599755301732     3.230589989282    -2.545853632279
C      0.886769404604     2.979525599312    -1.343718106212
H     -2.008972035740    -1.775571427164     3.157169345638
H      2.491982439814     5.218412113662     0.693598235653
H      3.703388484773     5.674717287117    -1.426428759782
H      3.160570706962     4.389927215383    -3.500489369629
H      1.320739222244     2.691087482628    -3.448463541580
H     -0.030307134592     2.383904863844    -1.406565734604
C      1.403261104913     1.976792693881     1.474483738748
H      0.989515371996     1.342565960373     2.256434220779
H      2.463334068765     2.190145634169     1.648416808027
C      0.593175219101     3.268635749579     1.201076860573
H      0.848780373683     4.031616678558     1.940613068842
C     -0.898304868051     3.111552196893     1.237234510577
O     -1.619436747857     4.065058607935     1.636333503827
O     -1.459433149582     1.946957875386     0.681043192877
C     -2.889437069575     1.909869575250     0.600417507758
H     -3.205242018251     0.930835370433     0.177109362647
H     -3.346853813330     2.019737833510     1.608523811950
H     -3.266683970043     2.718195998422    -0.065614513321
Pd     1.375776371561     0.884465644475    -0.260807883373
C      0.251184397481    -1.145319019717     1.435280644122
O     -0.824138179343    -1.059304480402     0.733686321408
O      1.436839858328    -0.779922823936     1.057839784986
C      0.095296789060    -1.647756256087     2.895120098338
H      0.891566299399    -1.182704230659     3.482205599544
C      0.198597007566    -3.152343655502     3.014016453640
H      0.090492807662    -3.445562056833     4.078783460045
H     -0.615451830895    -3.626975679806     2.428218116055
H      1.181723691183    -3.500395721158     2.636030392279
N     -1.200424919291    -1.226697917366     3.422151577838
C     -1.393968292755     0.074376896246     3.773395805738
O     -0.502135689437     0.956886232625     3.769120264842
C     -2.765931368834     0.422326959656     4.196096570693
H     -2.798947826651     1.498365583202     4.442332121495
H     -3.445390366955     0.191415758367     3.359742804022
H     -3.014727825967    -0.189214993773     5.080307183145
N      1.175248221090    -0.197470606175    -2.139610218308
C      2.207014439774    -0.219342249214    -3.039039728449
C      1.987071363278    -0.645046607373    -4.332737871433
C      0.736195836771    -1.068002139227    -4.727245352748
C     -0.273938855223    -1.059177556328    -3.802076450093
C     -0.008529855094    -0.622926045696    -2.485419799133
H      3.190726666526     0.122995539040    -2.739209044300
H      2.802603500406    -0.647614559398    -5.037584203358
H      0.556736619206    -1.405351079605    -5.744760468871
H     -1.267213867707    -1.386021023997    -4.038549135894
O     -1.049957483949    -0.673785883497    -1.679929484240
H     -0.893416885953    -0.715892773333    -0.619651904222

