# STO-3G

title

0 1
C      0.672960502108     3.692936960453    -0.266008682844
C      1.590429051062     4.763442526941    -0.162754371304
C      2.482545487188     5.052583617748    -1.209098934044
C      2.497746760766     4.265745988177    -2.383190074666
C      1.591568401477     3.204035166365    -2.507409074975
C      0.676666087090     2.912634367687    -1.461579148793
H      0.734487999728    -1.169972003048     4.157807214604
H      1.601691521998     5.369261329011     0.740885725824
H      3.168675547967     5.891625145181    -1.114207004292
H      3.192120356499     4.495474738911    -3.187144205634
H      1.558231229726     2.610329837917    -3.418575669225
H     -0.144952364073     2.221414422362    -1.676717338765
C      0.699221019331     2.045960806414     1.442309599680
H      0.191348413136     1.372979500351     2.126834233580
H      1.671049214874     2.362942260983     1.836743372529
C     -0.155400235137     3.242129098585     0.956237577487
H     -0.123088782417     4.048548686244     1.693844441338
C     -1.600765337137     2.924386347867     0.717206850476
O     -2.487336674231     3.760292229680     1.038074962544
O     -1.921727774332     1.703948216083     0.096921600986
C     -3.302143108001     1.323659540860     0.143965999318
H     -3.426831180136     0.338884463555    -0.356517548323
H     -3.641337981263     1.215742320070     1.200087824174
H     -3.939754025855     2.069920040150    -0.381174465250
Pd     1.139243426507     0.908677584307    -0.197980927285
C     -0.150836865138    -1.279797950046     1.224557563848
O     -1.015515062758    -1.313113798863     0.286419487829
O      1.014407056307    -0.689181976206     1.163342801106
C     -0.421956523988    -1.970933823563     2.590902700789
H      0.306177830482    -2.787656143498     2.680376326502
C     -1.815237145550    -2.551040532853     2.723598217298
H     -1.945328554125    -2.979697285839     3.738500043670
H     -2.575360274821    -1.758942844536     2.565460924036
H     -1.967941671804    -3.348936487685     1.968270884883
N     -0.162172938559    -1.049172960070     3.704146003691
C     -0.849576760093     0.105815130628     3.933299228194
O     -1.817353104932     0.527234143785     3.258367919563
C     -0.375484158563     0.893917538584     5.092294741651
H     -1.015055420631     1.788392048164     5.197190077176
H     -0.460059587865     0.253440838951     5.986317601533
H      0.674106119071     1.182990496575     4.914680601814
N      1.510747117686    -0.222715327093    -2.012011196765
C      2.735549953228    -0.152506073171    -2.619414848321
C      2.891741480943    -0.602837237548    -3.914109463733
C      1.825436082373    -1.141331733222    -4.601396496158
C      0.615940604114    -1.222199535076    -3.963528484792
C      0.496967603460    -0.757747836299    -2.635422974375
H      3.575882482537     0.280784047316    -2.089478512475
H      3.857043295500    -0.532769679988    -4.388603313289
H      1.942114880160    -1.497796973075    -5.621525607142
H     -0.251694900303    -1.639074426836    -4.435633330204
O     -0.705230124603    -0.899748812892    -2.118403812895
H     -0.811950621344    -0.932450123577    -1.057243470411

