# STO-3G

title

0 1
C      2.357289010902     3.175067746353     0.260971098320
C      3.104133816405     2.671350453889    -0.841549921613
C      2.762110034916     3.040515976819    -2.148717969114
C      1.677141054074     3.921272344638    -2.376727757411
C      0.928186971874     4.425282051820    -1.300840915092
C      1.267566341521     4.059643863168     0.022787654640
H     -1.821248130793     0.112909824957     0.850686300029
H      3.939742855387     2.000315674807    -0.662934173486
H      3.328037995108     2.648083938287    -2.989855367726
H      1.427248414519     4.210030157946    -3.395308099120
H      0.105663801834     5.112755661610    -1.479097584625
H      0.748184975926     4.519110015711     0.858256814210
C      2.406378383734     0.999571861718     3.171610219067
H      2.694223235409     0.935266632266     4.221753518094
H      2.952451582913     0.355424839281     2.484383050971
C      1.391716119359     1.778895697535     2.738272965820
H      2.702336749938     3.015356998689     1.278006843773
C      0.485446292147     2.562391268860     3.608468083109
O      0.353515634766     2.261116509472     4.824796293899
O     -0.189356207980     3.658879847044     3.045615303790
C     -1.101999404583     4.343285241144     3.915789182776
H     -1.580677578680     5.181721414440     3.365497410839
H     -1.905571006254     3.655040146165     4.265306284558
H     -0.568702247211     4.764931993567     4.798182058973
Pd     0.818883899032     1.536072942638     0.825684035760
C      0.065329402191    -1.178200571912     1.498334097703
O      1.260829914075    -1.403892451995     1.133362191023
O     -0.420846689746     0.052833062121     1.629993812109
C     -1.020199865319    -2.276198275892     1.641085235073
H     -1.709194625424    -1.956851294418     2.438978149414
C     -0.450016191619    -3.631228036420     1.977155560067
H     -1.278719848492    -4.358071274165     2.103087469050
H      0.195557825199    -3.972276981837     1.141160588073
H      0.142909887479    -3.580538471085     2.913033919314
N     -1.727565460263    -2.422971462069     0.351680953199
C     -2.337044908946    -1.458104570001    -0.243611688914
O     -2.468699314532    -0.138991873377     0.117313210754
C     -3.013055614409    -1.802790720695    -1.498034792435
H     -3.748762384132    -2.593131688639    -1.274334648152
H     -3.509120644316    -0.905029024777    -1.904102443043
H     -2.247247728289    -2.174889803628    -2.200334810351
N      0.267821961631     0.900185818344    -1.174385297562
C     -0.774022332374     1.498007868706    -1.830496682244
C     -1.003450268461     1.214626908109    -3.163421270785
C     -0.196929981422     0.322611067140    -3.836565426635
C      0.820244183453    -0.283355995677    -3.146558218311
C      1.004077188055     0.020720556224    -1.781186462885
H     -1.402580923675     2.209694109391    -1.308085166710
H     -1.821101912489     1.696214607867    -3.672774398547
H     -0.371860291184     0.095024597859    -4.884532469956
H      1.466819733110    -1.007861875613    -3.598975866423
O      1.982220919613    -0.660828094290    -1.194278300246
H      1.852101863832    -0.832741229893    -0.193248726446

