# STO-3G

title

0 1
C      0.307639380579     3.546229348515    -0.152755253909
C      1.022481004435     4.501325911756    -0.916496679834
C      0.371228820415     5.298229096056    -1.872164592204
C     -1.013261424765     5.152447814023    -2.080579077057
C     -1.734143099610     4.199360223247    -1.331912856614
C     -1.083772544300     3.401114889454    -0.379233148317
H     -3.694219463919     0.340966910831     1.114882889377
H      2.094059097907     4.614996147484    -0.758658996253
H      0.937253578840     6.025358766460    -2.448826895885
H     -1.522641189806     5.766696580935    -2.819096844717
H     -2.801116863712     4.076027061361    -1.501264548512
H     -1.641449419958     2.642290876813     0.158309299907
C      1.055867289899     2.782831121424     0.871252387421
H      2.743553269144     0.854273147643     0.564975356978
H      2.097132804184     3.081202428749     0.974406901802
C      0.504085518011     1.947663855805     1.865976675681
H     -0.555844634429     1.752590712693     1.873578438216
C      1.218299438382     1.527477723381     3.077665966563
O      2.459965552095     1.323420009040     2.995012123192
O      0.475395832671     1.091754355980     4.185510906218
C      1.220730561901     0.468109384641     5.240145266334
H      0.525683799920     0.173683232242     6.056066096839
H      1.726444655979    -0.454163769985     4.873586300653
H      1.977144570471     1.168236748599     5.661553709177
Pd     1.255609457842     0.640767908600     0.251029620974
C     -1.286701314507    -0.860668656612    -0.394286847212
O     -0.612424432135    -1.724062287163    -1.079390794140
O     -0.861474958761     0.317468511824    -0.081037029728
C     -2.678095372113    -1.281196691914     0.136219806093
H     -2.570015791763    -2.319615264956     0.468008323605
C     -3.753293758618    -1.212396026177    -0.926440000684
H     -4.718268510852    -1.553496407413    -0.497841735144
H     -3.863560429238    -0.164795910001    -1.274044791667
H     -3.485265724700    -1.862318744389    -1.785083473421
N     -3.075207640994    -0.444993565281     1.264623854043
C     -2.360346100420    -0.514314245907     2.423908052917
O     -1.387089334648    -1.279635958840     2.606289843285
C     -2.812431450692     0.381994833735     3.509028615943
H     -3.854492096193     0.115442144167     3.751792667526
H     -2.155554747751     0.232197554509     4.383652224152
H     -2.748197907503     1.423756994371     3.151955384992
N      2.251894674183    -0.779691412673    -3.202672177758
C      3.212791284493    -0.623832388920    -4.165010466334
C      4.544508377922    -0.514896349664    -3.800045409581
C      4.914169798138    -0.580152251558    -2.472284792918
C      3.928562362803    -0.737391688521    -1.529456787962
C      2.588497025572    -0.838621575819    -1.970472116977
H      2.926823544768    -0.577978420353    -5.209427350479
H      5.293813094351    -0.394253057669    -4.565241136162
H      5.960187536536    -0.521097803473    -2.182844145875
H      4.155477292285    -0.860838432422    -0.491188556748
O      1.676179517272    -1.007095582193    -0.977295720258
H      0.633237333969    -1.409514826525    -1.198817345432

