# STO-3G

title

0 1
C      0.784806356304     2.764158500288     0.194309229096
C      1.588574619771     3.135929145385    -0.912118348772
C      1.055496647882     3.882344110863    -1.973629227039
C     -0.296037015315     4.281304999432    -1.939419051358
C     -1.098645584270     3.932029256385    -0.834489516520
C     -0.567751600797     3.180660471264     0.228663420427
H     -2.710966145431     1.451191457250    -0.222116002940
H      2.632983566684     2.825051082410    -0.937522611755
H      1.687953203407     4.162567536341    -2.812313387332
H     -0.713454294191     4.870292208417    -2.752631253406
H     -2.133348501366     4.263962375795    -0.786103302188
H     -1.206261401311     2.947954213304     1.076990253205
C      1.427104736054     2.027215197681     1.303605160088
H      2.765110376300    -0.126949926752     1.186025926569
H      2.507935729197     2.146447621915     1.337028062955
C      0.781553047741     1.414296815528     2.403576145808
H     -0.298381159408     1.385479396172     2.437357280069
C      1.461503256312     1.082344071819     3.663372481200
O      0.784531193786     0.572057981755     4.591448790964
O      2.859978514683     0.925435986655     3.631446144132
C      3.471884027424     0.554358988874     4.875909874250
H      4.573596663532     0.488509429087     4.743679482361
H      3.264055631218     1.316339692399     5.661938757497
H      3.103576124189    -0.438672007130     5.221901288445
Pd     1.244483355187    -0.205100372871     0.979505345916
C     -1.528904628219    -1.038827149695    -0.062119460514
O     -1.018881617404    -2.006886179142    -0.737103323443
O     -0.878260152271    -0.318570875200     0.795566966758
C     -3.017243796085    -0.624469738604    -0.255491250272
H     -3.648891025415    -1.362043685253     0.255485208010
C     -3.424416455173    -0.596924705171    -1.712295117974
H     -4.481682915377    -0.270445227570    -1.794415756043
H     -2.785748375934     0.126441970800    -2.261503452115
H     -3.314424795751    -1.603835526334    -2.165077525844
N     -3.201899257190     0.719598400988     0.291550998516
C     -3.329505154290     1.054900234805     1.607521606758
O     -3.002835489689     2.183217678476     2.055975795596
C     -3.921067673544     0.056743057023     2.525137832685
H     -3.229253873726    -0.796669678620     2.604195447202
H     -4.039811379739     0.532343608949     3.514957832599
H     -4.906450847056    -0.239242933466     2.126619771402
N      1.180980871606    -0.225136729709    -2.434783812522
C      1.744782862455     0.621104854443    -3.350283451606
C      3.119528781300     0.796037183206    -3.371372227416
C      3.927127409890     0.113650520891    -2.484594845369
C      3.330770816101    -0.718823888101    -1.569144111417
C      1.925111656971    -0.852522083420    -1.603838706195
H      1.113327006771     1.157377076694    -4.049141742424
H      3.554062835854     1.462603698649    -4.098278626716
H      5.007269145042     0.231352876054    -2.513135185809
H      3.900198851605    -1.312611769468    -0.883896546766
O      1.412990231832    -1.674399134695    -0.632538765897
H      0.355084933951    -1.926453236845    -0.758941903740

