# STO-3G

title

0 1
C      0.790353558456     3.927469460401    -0.044307900834
C      1.877585924792     4.775097537004    -0.371471955149
C      1.920107986096     5.451375302886    -1.601312292792
C      0.874854681506     5.281189126679    -2.530228901046
C     -0.201760927563     4.423990696422    -2.221758159689
C     -0.247857390168     3.748679777516    -0.993046641850
H     -1.935388366733    -0.814315130085     1.538309467367
H      2.690461452842     4.903118665141     0.342575446268
H      2.758719926391     6.103712772154    -1.833477984702
H      0.902721435336     5.803206319396    -3.484301444825
H     -0.998513038247     4.268440516888    -2.944870635891
H     -1.042276626630     3.035138421750    -0.797753219451
C      0.804352862268     3.278143359782     1.282953248265
H      2.053444290167     1.158136833386     1.836422007042
H      1.713856369250     3.455476290291     1.854909253911
C     -0.294214106033     2.685833581850     1.954448571663
H     -1.259944626677     2.656469792412     1.476665270597
C     -0.292115739691     2.369600984516     3.388161609220
O      0.789689475667     1.969112213039     3.897319875149
O     -1.518742284393     2.113310291852     4.019576846232
C     -1.450680550057     1.757452155470     5.407797506342
H     -2.480638523581     1.601489395054     5.796582537272
H     -0.881517367175     0.811596864064     5.551403660093
H     -0.976461863621     2.570841552128     6.002577860325
Pd     0.794756365614     1.065543928319     0.965723510689
C     -1.376315278431    -0.011332865891    -0.954841619243
O     -1.584410329079     0.173813099001    -2.178391628537
O     -1.158126742655     0.919826983025    -0.043451984567
C     -1.387394902947    -1.485623631626    -0.376893052969
H     -0.529814616587    -2.031489925307    -0.781626103799
C     -2.646448872019    -2.237521615638    -0.746117851050
H     -2.604201042877    -3.265087604148    -0.330030822181
H     -3.526233196259    -1.712314418597    -0.321452919660
H     -2.748400099203    -2.293604727895    -1.849949817759
N     -1.299367478471    -1.466701143484     1.089406932866
C     -0.281819746846    -1.978335380495     1.794784739169
O      0.752528304651    -2.530375304123     1.295405676216
C     -0.392727845095    -1.878440968123     3.261124843341
H     -1.315478181241    -2.404499559268     3.562224111049
H      0.489006477616    -2.357234852695     3.722570823373
H     -0.450161777664    -0.812601230365     3.540110893237
N      1.685227697615     0.729931799231    -1.784229160810
C      1.750745898236     0.950954987583    -3.132061779776
C      2.044889353903    -0.102353550861    -3.984308112951
C      2.251971371270    -1.373087433134    -3.483050196663
C      2.165146501499    -1.562055326445    -2.124258709381
C      1.866215059228    -0.440021337872    -1.319149795285
H      1.581471756536     1.947269599233    -3.524450322046
H      2.092673421385     0.076959263875    -5.045393122682
H      2.474178776342    -2.202756210448    -4.148776064541
H      2.313622596504    -2.523212554977    -1.675817748125
O      1.741049312658    -0.640941525947     0.025774917381
H      1.497119970562    -1.563899026958     0.406463051015

