# STO-3G

title

0 1
C      2.092945442443     1.972662700224    -0.595752920252
C      3.121514050189     2.650141745394     0.096342538146
C      3.336868628535     4.025505228601    -0.126228710919
C      2.526878888885     4.735239492202    -1.034832225814
C      1.498873846746     4.060901305285    -1.720511086759
C      1.283508264313     2.681914362411    -1.508995079255
H     -0.717479367749    -0.315243978873     3.474948729481
H      3.735766061830     2.119269045647     0.819218878952
H      4.131960296486     4.538629139954     0.411706568844
H      2.692273055674     5.797264284879    -1.203013512391
H      0.861463626809     4.600858650024    -2.418575394818
H      0.483935727991     2.179934467703    -2.047721133988
C     -1.566022965659     1.051612360702     0.346183612827
H     -2.318831957756     0.275413147151     0.454392188984
H     -0.606105793900     0.709671350084    -0.030614751787
C     -1.746912609848     2.357721428510     0.642716959387
H     -0.926841351883     3.049725678731     0.496265654300
C     -2.998395911210     2.942082505293     1.148786644323
O     -3.024637329113     4.171839162154     1.421260918256
O     -4.122027934491     2.122092754736     1.362822710142
C     -5.290218626121     2.778295407221     1.874550580554
H     -6.105354785218     2.033212593799     1.998369914855
H     -5.083294526589     3.235901854787     2.868453357779
H     -5.642199684275     3.565445340263     1.169860768146
Pd     1.869446167039     0.035288890782    -0.180803719195
C      0.472314420338    -2.001910113904     1.089333901801
O     -0.685727282104    -1.823362781826     0.526034141035
O      1.585487952922    -2.138382010355     0.454996211287
C      0.536676404086    -1.868934029073     2.636030111170
H      1.575576917464    -2.057860118387     2.927053546156
C     -0.379981246679    -2.831294677565     3.358104252532
H     -0.269541015966    -2.698142074004     4.454172899453
H     -1.432766443801    -2.622988071013     3.073926562682
H     -0.125409913033    -3.877022201245     3.089397733684
N      0.178780441212    -0.492432002920     3.036652208186
C      0.945078040840     0.561553725469     2.710865955962
O      1.943321243214     0.522360013911     1.929711446323
C      0.598344395604     1.846836220097     3.343778034271
H      1.277076694972     2.632006481631     2.965475800315
H     -0.446514363380     2.086656246117     3.088222625215
H      0.707572513393     1.730586343788     4.435818423966
N      1.535428033010    -0.369244226218    -2.141684702170
C      2.525556946675    -0.019585406804    -3.021512601568
C      2.343281865146    -0.197897674330    -4.375203648688
C      1.171820591375    -0.733324312883    -4.857574643941
C      0.201363580617    -1.088226627712    -3.959789817286
C      0.415566426317    -0.904876659782    -2.574173279596
H      3.450031570588     0.409556331236    -2.652417850047
H      3.125805866058     0.089228851727    -5.058367874215
H      1.021449338651    -0.873639451367    -5.924746308881
H     -0.729794273035    -1.516004763355    -4.274835355967
O     -0.590071746568    -1.287878493838    -1.841537135197
H     -0.597662817009    -1.523799644166    -0.754321118564

