# STO-3G

title

0 1
C     -0.096143158614     2.385323224620    -1.502257306129
C      1.128209099180     3.074989214160    -1.360851397513
C      1.159292682615     4.484921916999    -1.413360133611
C     -0.025576781134     5.216243459212    -1.620389282812
C     -1.247364775167     4.529598876304    -1.765852058420
C     -1.285687977893     3.121512200341    -1.704376067401
H     -1.719891764802    -0.646745874867     2.827206437161
H      2.056124670211     2.530257643383    -1.205055934668
H      2.108095281789     5.004324226758    -1.290521437186
H      0.001614702346     6.302936133114    -1.663865287721
H     -2.169857009523     5.085911516290    -1.922641095093
H     -2.238094716178     2.604780549012    -1.791037671141
C      1.642197390876     0.857013430431     1.721934467607
H      2.070447493664     0.040409951387     2.296523106978
H      1.862118872090     0.838731947719     0.659865294987
C      0.838074746859     1.812071298732     2.238394288724
H      0.422265484947     2.564905672039     1.581869291516
C      0.455298681698     1.909903093423     3.655745244653
O     -0.370611034552     2.799541598504     3.993229390684
O      0.986210633288     0.998948383522     4.590781812995
C      0.549547843930     1.093156567456     5.958237123503
H      0.089354839353     0.128144186605     6.261995664097
H      1.430379570841     1.273469697183     6.610879455289
H     -0.191611268359     1.900968173240     6.151834737243
Pd    -0.264900692678     0.401402719255    -1.396395812819
C     -0.312606045176    -1.892277178975     0.180294776410
O      0.885879392780    -1.781811480994     0.675550016937
O     -0.596123281688    -1.807892568900    -1.071753161681
C     -1.438845932845    -2.006875198267     1.241263841258
H     -1.052409075504    -2.617462482159     2.063536220551
C     -2.714345656979    -2.624109529212     0.707736401226
H     -3.461573604194    -2.696105523273     1.524900407837
H     -3.127897324687    -1.987846230962    -0.101815085025
H     -2.509934578535    -3.639004616304     0.309099552751
N     -1.775771796684    -0.681669444126     1.817638767317
C     -2.093783306314     0.440691150287     1.145378102169
O     -1.954916149985     0.629787467797    -0.097469410227
C     -2.705527749704     1.543863612757     1.916104973110
H     -2.758392495048     1.299146553652     2.990946131843
H     -2.088328080334     2.445771644607     1.769855058604
H     -3.720017629820     1.713642160107     1.518058146597
N      1.435831341650     0.179860503471    -2.477455321801
C      1.449498333538     0.734404867803    -3.729852330501
C      2.589323862668     0.672917869052    -4.501354737206
C      3.721102639973     0.051081973452    -4.027486032123
C      3.681997266936    -0.505629369878    -2.777448067207
C      2.497352893633    -0.437938058786    -2.008469004228
H      0.564772848012     1.231849604704    -4.110476696861
H      2.590533268174     1.119261332948    -5.482296367491
H      4.623349943981     0.001175676496    -4.631311961240
H      4.529719813810    -1.008795256600    -2.356338224322
O      2.600258176281    -1.005889732293    -0.842090120034
H      1.770476072463    -1.352707084715    -0.159233385729

