# STO-3G

title

0 1
C      2.190270571924     2.449121366953    -0.527105619709
C      3.344760686586     2.974008390518     0.094157877187
C      3.845978058851     4.232117150739    -0.299076476189
C      3.199729122725     4.974997493060    -1.306406756627
C      2.045211578389     4.453296984820    -1.920135725235
C      1.542337096706     3.191906999558    -1.537376817126
H     -0.378074496906     0.896768222031     2.432202542674
H      3.837994960976     2.422169404210     0.889766078894
H      4.734936780036     4.630210828128     0.186619467184
H      3.587411200220     5.946355753718    -1.605354565216
H      1.532389059319     5.021326656008    -2.694269890333
H      0.654967463318     2.802310532926    -2.031109498952
C     -1.174778788241     2.314895378053     0.543219200857
H     -1.175496685407     1.872559216686    -0.450482970917
H     -0.287460019666     2.883415797426     0.805553736231
C     -2.206999167573     2.159548556803     1.405319681766
H     -2.163414870511     2.594475509096     2.396697342142
C     -3.437819068360     1.417294367837     1.094098771363
O     -4.295282098244     1.253632005225     2.003962932233
O     -3.673492374397     0.970441682854    -0.218496215734
C     -4.818610194174     0.127826450376    -0.398248509489
H     -4.886301554127    -0.171830352614    -1.465881489292
H     -4.724060190819    -0.796962324194     0.214757850419
H     -5.753970854164     0.665669812794    -0.123840778010
Pd     1.572073194343     0.652345407372     0.083812467669
C     -0.320653112283    -1.315131452614     1.406389840486
O     -1.375935565139    -1.147967181008     0.681001660734
O      0.890811131261    -1.349016086611     0.952792953179
C     -0.425089366592    -1.123203019335     2.961339054058
H      0.209738875295    -1.851637796672     3.471635110345
C     -1.817206370206    -1.152686956314     3.539774683699
H     -1.767164503512    -0.957188670554     4.630221105773
H     -2.437748111763    -0.363710679215     3.072363021176
H     -2.285046678979    -2.141598210538     3.359250585113
N      0.120849390126     0.258601154338     3.067618746078
C      1.465438417411     0.469152323145     3.044703602356
O      2.044740920444     1.166583228939     2.155309284297
C      2.272681178516    -0.088752715840     4.144059031340
H      3.283538406188     0.354089978960     4.098336162523
H      1.780403665754     0.187914990357     5.092414698642
H      2.338573428995    -1.182475663335     4.030552807750
N      1.244851077718     0.095452077071    -1.848399890605
C      2.326669477604     0.195139302902    -2.684329236244
C      2.193351241420    -0.081094599741    -4.027580537626
C      0.977307679098    -0.462041181044    -4.544286722468
C     -0.085185891637    -0.572329075301    -3.688968001869
C      0.081986307862    -0.298382875242    -2.311412063040
H      3.288520421394     0.502684435220    -2.290354289420
H      3.049215296842     0.011687715655    -4.675797762821
H      0.863907219627    -0.674565601263    -5.604015680097
H     -1.056525743102    -0.871523975143    -4.029419671164
O     -1.010174914817    -0.453383512160    -1.617537510295
H     -1.126959149156    -0.750933811812    -0.561083774056

