# STO-3G

title

0 1
C      1.443298557465     2.036111775416    -0.613452675002
C      2.266439961330     3.020248534219    -0.022105634494
C      2.242350143778     4.345438539094    -0.503719589349
C      1.393752914178     4.700349699115    -1.571078354673
C      0.559290192341     3.723727089220    -2.147289537965
C      0.584773599680     2.393623542506    -1.675655946582
H     -1.005003621378    -0.383255609055     3.693208779445
H      2.910050624727     2.762264103191     0.815401164828
H      2.886011391472     5.093946894687    -0.045405876358
H      1.380130179463     5.721773090638    -1.944811932746
H     -0.112595391217     3.987641975553    -2.961894877581
H     -0.067251189223     1.653675275516    -2.132886941870
C     -2.025323828539     0.315545295575     0.487336109109
H     -1.010440733787     0.672403726398     0.311945050737
H     -2.126166670508    -0.762627516222     0.541887185742
C     -3.086460305480     1.143027557267     0.615937562088
H     -4.077613049689     0.733128188300     0.757907341477
C     -3.009279235320     2.610043748115     0.555426375645
O     -4.072090751645     3.281483723617     0.630856385609
O     -1.749839431822     3.235541581965     0.538619181725
C     -1.755556675972     4.668010375673     0.492746556464
H     -0.707026992302     5.036085873289     0.481947824104
H     -2.259636287000     5.030563214150    -0.431193188408
H     -2.265777208635     5.091623689405     1.387062001996
Pd     1.624299819360     0.184492203259     0.106570267345
C      0.733720156304    -1.969410820374     1.619143636642
O     -0.401333136922    -2.187013050408     1.025669975134
O      1.872385382922    -1.887909141156     1.020671540540
C      0.686925567711    -1.614586605394     3.131872870160
H      1.721798734543    -1.457223461550     3.453651102520
C      0.044051590974    -2.688192974328     3.980965033470
H      0.058863663838    -2.377280088327     5.046086993888
H     -1.009439242115    -2.831278177876     3.661929963069
H      0.596126921390    -3.644084078156     3.871457232751
N     -0.061717936861    -0.355943814703     3.323184400311
C      0.408247682804     0.814081373342     2.859945633902
O      1.439684676859     0.943657188747     2.132377231355
C     -0.326850533333     2.024863202873     3.265360331853
H      0.124203963274     2.903527410267     2.770159476374
H     -1.376264065947     1.910386801558     2.949728244815
H     -0.262590845254     2.114564986178     4.363151964950
N      1.518192997570    -0.572021575916    -1.777241508070
C      2.456983650509    -0.132018157234    -2.672845023841
C      2.404356662638    -0.540282820415    -3.987650043675
C      1.415787324214    -1.396351705574    -4.413742114121
C      0.497575392588    -1.835371550377    -3.498417216931
C      0.580582647488    -1.411531556831    -2.151981822399
H      3.235592839462     0.549218525127    -2.349248824919
H      3.142740203994    -0.180060944374    -4.685045792051
H      1.367228237656    -1.719398143894    -5.450270790506
H     -0.290460082718    -2.510137986378    -3.768315847906
O     -0.352677701107    -1.916136571442    -1.394521403493
H     -0.336686278918    -2.014136515729    -0.298101751494

