# STO-3G

title

0 1
C     -1.696662419140     0.092977709512     1.909377712767
C     -1.409106173313     0.030617478416     3.288301299893
C     -1.924711167428    -1.016044983276     4.079166747378
C     -2.737840634759    -2.008243322536     3.494820871315
C     -3.038314907305    -1.946175093300     2.118976653218
C     -2.519679837399    -0.897141780532     1.332602538877
H     -1.304442857831     0.887167484627     1.281369836441
H     -0.787114103094     0.797144264389     3.746341971862
H     -1.699845435110    -1.054144322969     5.143145509409
H     -3.140986864588    -2.813516269599     4.105590709415
H     -3.673748020223    -2.703965806586     1.664532682840
H     -2.747536093357    -0.847077946425     0.268935338792
C      2.275730155014     2.618686367189     0.284866643164
H      3.331818273941     2.863505950566     0.184627210084
H      1.611001067399     2.949598995479    -0.509564461860
C      1.760274992703     1.946074394398     1.347137186267
H      0.702392148627     1.740270305585     1.356366045322
C      2.539160232339     1.423369077241     2.482061258790
O      3.793925260874     1.555442564202     2.491762426751
O      1.856890912496     0.859206439646     3.574695576903
C      2.680877868385     0.296749632909     4.604274602480
H      2.033871483755    -0.127053623945     5.401636038326
H      3.313415315947    -0.524229393887     4.196317927869
H      3.332730887620     1.076242621966     5.059798769639
Pd     1.067536507324     1.177652763514    -2.898782574831
C      3.397512308226    -1.065078808427    -3.838282237579
O      2.531247849723    -0.260367005689    -4.007607462734
O      4.262872118414    -1.869791458183    -3.707464010861
C     -0.270878048749     2.510294517128    -3.814537646175
H     -1.079560800838     2.016291107433    -4.363939231016
C      0.316456811935     3.722528830168    -4.462727574592
H     -0.432648265413     4.540242479636    -4.454297018395
H      1.215098192246     4.051864331048    -3.901484283612
H      0.599719967044     3.488151509294    -5.508764346763
N     -0.285941119164     2.609434461633    -2.443934238505
C     -1.144880881953     2.633009737233    -1.414390243535
O     -0.920231590826     2.163728940179    -0.265842293183
C     -2.391607856307     3.389567865164    -1.652699069977
H     -2.982893067849     3.395022918229    -0.718690935039
H     -2.112979965947     4.419829557497    -1.931468467810
H     -2.957203385032     2.897182866070    -2.461070793264
N      1.310384036874    -1.089140770224     0.700853520681
C      0.614969667048    -2.114651893934     1.283427290162
C     -0.014603548137    -3.058284268597     0.486883590549
C      0.042316449088    -2.962560105823    -0.889120348015
C      0.728228877796    -1.908737566343    -1.440809851940
C      1.358312625180    -0.996291768451    -0.568338432325
H      0.564368913449    -2.187361244524     2.363637294304
H     -0.558163585694    -3.861500999696     0.954905270140
H     -0.440731703798    -3.704963105276    -1.518406957690
H      0.848941645389    -1.799166677377    -2.497739020609
O      2.034436734270     0.026770345683    -1.187123009648
H      2.278544072461     0.721857593376    -0.514131175335

