# STO-3G

title

0 1
C     -0.532317738256     3.167675807477    -2.042176956864
C     -1.393577453575     3.303952692733    -3.166617582265
C     -2.516431945453     4.133572462465    -3.088638377995
C     -2.824232052602     4.814584826770    -1.879789479076
C     -1.989820921851     4.688766661035    -0.764964924485
C     -0.821696661621     3.880886585319    -0.840744944290
H      0.414715320602     2.645389472177    -2.131057509649
H     -1.154907624002     2.780738870373    -4.088914763013
H     -3.167611512257     4.259926891193    -3.949612970902
H     -3.710111929453     5.443168843396    -1.830877526469
H     -2.208764375502     5.230903838146     0.150984988141
H     -0.082249972927     3.904261970959    -0.046159429890
C     -3.165238715284     1.193310237184     0.147110668860
H     -3.672908268448     2.146938194237     0.269512495649
H     -2.908335303817     0.653811064423     1.054043715657
C     -3.036699672710     0.580117286290    -1.099070195589
H     -2.592926510749    -0.407512755485    -1.196989708854
C     -3.681050670090     1.079920230507    -2.329538936812
O     -4.542341390728     1.997402213911    -2.257024960858
O     -3.408014410913     0.435328791152    -3.548933166002
C     -4.142373567715     0.903565695238    -4.688292111058
H     -3.841451163753     0.319858892405    -5.584739147308
H     -5.237239612939     0.767903018842    -4.535581064830
H     -3.927479325774     1.977510801309    -4.884505508437
Pd    -0.976559127242     1.472357596140    -0.369005223678
C     -0.288271283785    -0.222536985264     1.851749097301
O     -0.777065363810    -0.310444938516     0.564477905980
O     -0.940455732743     0.278742461866     2.783917674423
C      1.176134523847    -0.750098850475     1.922279662132
H      1.202215901142    -1.721218428552     1.406480966770
C      1.656684949938    -0.943389706232     3.341620651156
H      2.676452119168    -1.381495493743     3.332080591379
H      1.697139190114     0.041181720097     3.851252718083
H      0.972679920399    -1.620655718852     3.893198078954
N      2.135736201390     0.122412445534     1.270079872667
C      2.035187109308     1.096176004111     0.453534798089
O      0.990934293216     1.800039944438    -0.071581228644
C      3.318946445757     1.655452176661    -0.006919209987
H      3.363426425428     2.709703347864     0.311879362309
H      4.155165031111     1.087123353755     0.441438326544
H      3.353922389556     1.574755495418    -1.106396780035
N     -1.669330397314    -1.989286557601    -2.289674710057
C     -2.396108996573    -2.547347056364    -3.307527921473
C     -1.760626833968    -3.286319372108    -4.289908382506
C     -0.393616089880    -3.467311203529    -4.254500082901
C      0.310591648340    -2.896988261582    -3.226273266751
C     -0.389472472916    -2.155196475523    -2.249444197223
H     -3.470342885063    -2.407849715912    -3.340360342265
H     -2.342852208501    -3.721975471240    -5.084416701099
H      0.111831616200    -4.047563483028    -5.021686673952
H      1.373006926739    -2.996626459778    -3.131446060858
O      0.395447494905    -1.645180446947    -1.294594252442
H     -0.093703317040    -1.149139525640    -0.554865785244

