# STO-3G

title

0 1
C      1.749151368684    -0.823382239390    -0.880506690470
C      1.562560337316    -1.816010038316     0.121837662470
C      1.671320852714    -3.182079481149    -0.202694632511
C      1.992370604772    -3.571275304216    -1.516753318733
C      2.208887717916    -2.595454246998    -2.515993975088
C      2.089801605178    -1.234246246037    -2.198866143285
H      1.860080378122     0.235873844713    -0.615254876526
H      1.363912101445    -1.510241946519     1.144243891358
H      1.522638719418    -3.931594389668     0.569932907343
H      2.085918040084    -4.626487292904    -1.763510518107
H      2.465539190963    -2.896941597636    -3.528892349043
H      2.274851703634    -0.488466094046    -2.968618650348
C     -0.680524312662     0.906706251841    -2.836494269947
H      0.287860286261     0.944817005768    -3.323002855597
H     -1.123297292343     1.855187608547    -2.550499343781
C     -1.422526120719    -0.274173953425    -2.741705068114
H     -2.418098969765    -0.222463419489    -2.328768604284
C     -1.066668988270    -1.547538944746    -3.390022235299
O     -0.153031884167    -1.576424397010    -4.257047329615
O     -1.820740949538    -2.690647310913    -3.078880073895
C     -1.406713821054    -3.906001901665    -3.718626553100
H     -2.068514810955    -4.737652506086    -3.393646302463
H     -1.480574505757    -3.816222556869    -4.826370887681
H     -0.360730572768    -4.164458661801    -3.436957971159
Pd    -0.438377682055     0.207889656964    -0.723472271997
C     -0.599279274758    -0.140477099361     2.250080665198
O      0.055803606147     0.496021207941     1.238946905125
O      0.015284245385    -0.825179614021     3.091901668922
C     -2.144818303085     0.038924588087     2.340313630278
H     -2.357281171457     0.001915915725     3.414536211988
C     -2.888039956171    -1.116488641513     1.685349381383
H     -3.978850911672    -0.985630229113     1.843823828753
H     -2.688554440092    -1.140470093614     0.596838280712
H     -2.573375014951    -2.079727108553     2.138797053416
N     -2.657845218856     1.307031981529     1.834238545932
C     -2.608366627422     1.744469868602     0.632945464229
O     -2.196659863790     1.135000147950    -0.523338497096
C     -3.150037041411     3.091705365732     0.403641367913
H     -3.992241201406     3.004813277493    -0.301757025027
H     -3.495782932605     3.514161769008     1.365356140250
H     -2.342678782451     3.717586767707    -0.013369392628
N      1.711405845997     2.451194085472    -1.045944356892
C      2.474327454481     2.844529534068    -2.113506528221
C      2.571521145086     4.183517894202    -2.441724844461
C      1.922672799417     5.137974496229    -1.687081905709
C      1.180593729512     4.720668892908    -0.613519433677
C      1.114932721229     3.341019572676    -0.320844218131
H      2.986556358276     2.099877659202    -2.711493872540
H      3.169570214759     4.480696124551    -3.287739140563
H      2.002246101017     6.193443341094    -1.933886562119
H      0.664113750986     5.406985591832     0.027766013083
O      0.373916881569     3.063799994616     0.752537370044
H      0.303970249371     2.090985981968     1.005899959652

