# STO-3G

title

0 1
C      1.481698254449    -0.678635278523    -0.921791750889
C      1.194071631897    -1.936220116364    -0.319700308469
C      1.306317035508    -3.125891902080    -1.066328061764
C      1.729647881482    -3.075898914986    -2.406927381757
C      2.033429890480    -1.835596922161    -3.015251182496
C      1.909128747500    -0.649370397119    -2.279576825718
H      1.637166815554     0.225312304937    -0.314828042799
H      0.897818501984    -1.959735328373     0.723667393996
H      1.076994661854    -4.080566549151    -0.600818188510
H      1.828360016275    -3.994926061341    -2.980131549281
H      2.355069316578    -1.799740082337    -4.053440375795
H      2.150852988809     0.304154204077    -2.744765873293
C     -0.956694478400     1.443187629348    -2.356549096724
H      0.017809582266     1.668457318117    -2.782770384747
H     -1.418226250521     2.245623192686    -1.791694117769
C     -1.650719336702     0.269396871688    -2.658049413647
H     -2.650179546835     0.153988581042    -2.269483894282
C     -1.232081585682    -0.721565657817    -3.663894813710
O     -0.298338255547    -0.447582711828    -4.464427783980
O     -1.968445918094    -1.912517513873    -3.777501317705
C     -1.509671120532    -2.838372099402    -4.772481116026
H     -2.159523648882    -3.739817871857    -4.764640919392
H     -1.557794689978    -2.384167919948    -5.788343026466
H     -0.465061437986    -3.160616568891    -4.560542387655
Pd    -0.701227313393     0.143293488629    -0.551637481063
C     -0.705635592028     0.872365077924     2.172475518858
O     -0.355114110370    -0.185902402384     1.424819788163
O     -0.179938819555     2.016851849245     2.068351794059
C     -1.953041416594     0.661845399491     3.065883512170
H     -2.033851518604     1.525769472408     3.737383022412
C     -1.897444214206    -0.602816570579     3.892672624491
H     -2.790780138798    -0.653981441600     4.549173294787
H     -1.901882770459    -1.483750219408     3.218725435262
H     -0.981377911114    -0.614208658568     4.517916356297
N     -3.166642899850     0.596898611708     2.262509507031
C     -3.363662593599     0.647761752787     1.003238994601
O     -2.550057082008     0.806594399701    -0.086175177088
C     -4.777090364560     0.579091558424     0.589609269769
H     -4.896327508826    -0.294838105895    -0.070859833433
H     -5.421195137163     0.472416843401     1.482367220759
H     -5.023517746535     1.512633324437     0.055580786915
N      2.502359368260     2.247688396033    -0.407385586796
C      3.711536254306     2.243604162703    -1.049687516301
C      3.930128294886     3.096895755583    -2.116495211729
C      2.945761091179     3.972107112090    -2.526836746769
C      1.752091316417     3.969618909861    -1.852451479348
C      1.583319640021     3.078488414901    -0.769367528690
H      4.484954933291     1.552205735534    -0.736116391083
H      4.880852400568     3.077621721190    -2.623304049374
H      3.113956944601     4.648973833088    -3.360274667773
H      0.949094436248     4.632832922072    -2.104360858676
O      0.381354905285     3.161988975804    -0.185369842190
H      0.279945856711     2.666114586977     0.698081913556

