# STO-3G

title

0 1
C     -3.148751621338    -1.097652514697    -0.171110957395
C     -2.236586404130    -2.189725404066    -0.147409781450
C     -2.465321482986    -3.290069979541     0.717342242257
C     -3.613770379270    -3.321153746425     1.520503770940
C     -4.547431181616    -2.251584501498     1.480937499409
C     -4.312972081885    -1.151153474469     0.649794853789
H     -3.076355440568    -0.287987771006    -0.898647336011
H     -1.399359636999    -2.195541807515    -0.838869726825
H     -1.756457873953    -4.113255584760     0.740092600195
H     -3.797080243853    -4.173062667901     2.171374313613
H     -5.445807428776    -2.298013733635     2.091704556704
H     -5.026137786594    -0.332853671733     0.603970890131
C     -2.297292878825     1.013598100695     2.410748355579
H     -1.697784815062     1.906679867344     2.562568655833
H     -3.269759682893     1.154199830706     1.949371522261
C     -1.910560733158    -0.227035116348     2.936983129124
H     -2.578127521106    -1.069846379668     2.844734504031
C     -0.772489764298    -0.430259615047     3.853228043252
O     -0.215962254999     0.563913568434     4.390928523043
O     -0.492862449688    -1.740204286427     4.276804755280
C      0.682101318265    -1.890613824660     5.085660293702
H      0.819274233094    -2.962719385873     5.341736345447
H      1.586814878189    -1.548436248778     4.531652669671
H      0.588878153285    -1.313743036012     6.033628115356
Pd    -1.209115800105    -0.017953045783     0.798198370737
C      1.518642613685     0.330622214896     1.214817096678
O      0.372378723144     1.064589838856     1.355970203831
O      1.776343552648    -0.697527509028     1.877659307180
C      2.430112984097     0.821337172872     0.052641148879
H      3.372201642274     0.265670801403     0.142442279657
C      2.732496102130     2.303052687173     0.120240899134
H      3.453585957140     2.572455509903    -0.679158967825
H      1.795309463601     2.876658348651    -0.036624562699
H      3.165903668204     2.562945362646     1.107737726800
N      1.885819524168     0.568858561897    -1.269977768934
C      0.735027103847     0.252973042747    -1.708978113003
O     -0.486732769720     0.038217718522    -1.109018320295
C      0.635897913072     0.096940943704    -3.170276891104
H     -0.083235403628     0.843625154471    -3.546096115122
H      1.628243319072     0.266739428104    -3.628779672229
H      0.289322700208    -0.927746781530    -3.386651758320
N     -3.761468392956     1.770622272263    -1.328525672381
C     -5.088740633805     2.080807813316    -1.460428507918
C     -5.488911458005     3.402780601196    -1.525043270609
C     -4.557746599447     4.419135867313    -1.470914424926
C     -3.234845450598     4.080508820927    -1.354931900554
C     -2.881919690420     2.715093483582    -1.296055707339
H     -5.825077598424     1.286574492358    -1.500039566125
H     -6.536424393025     3.636404437401    -1.622764516598
H     -4.864474859434     5.460475073386    -1.523248839657
H     -2.455489464269     4.815513478205    -1.315659997218
O     -1.563246463902     2.510866358523    -1.198966743852
H     -1.264531171575     1.551606521551    -1.211172095650

