# STO-3G

title

0 1
C      0.653402293284     3.379452453439     0.151986872553
C      1.695002960853     2.568392193986     0.710486177610
C      3.047633351195     3.015869432341     0.686381942183
C      3.381958135523     4.249435161815     0.124071068798
C      2.368539601679     5.048479246077    -0.462969607112
C      1.044262581731     4.611458160619    -0.475550475078
H     -2.008426662318    -0.062538858747     0.821716609371
H      1.467665607200     1.671088827776     1.275072325632
H      3.811582880705     2.383214462118     1.129930338907
H      4.413935168610     4.589967429918     0.125529035767
H      2.626055481074     6.004501161629    -0.911730752029
H      0.271602232509     5.234805174042    -0.919894853583
C     -0.810595426414     3.125146676606     0.237359230001
H     -1.307421882452     3.316162678438    -0.715977148153
H      2.030448256922     2.433088272452    -2.139337756764
C     -1.637298859939     2.780029842088     1.253273843573
H     -2.692516611811     2.725243902347     1.019984144621
C     -1.325705674547     2.511933189992     2.667485493540
O     -2.285613081255     2.486375295996     3.486083943870
O     -0.008861058565     2.268078901556     3.099047593164
C      0.129195117297     1.818576522650     4.454127184049
H      1.202868559033     1.644964410578     4.677436777772
H     -0.256354066281     2.583318176243     5.165551148751
H     -0.420149452700     0.860505741606     4.608822367792
Pd     1.097024713532     1.533330854621    -1.330998051929
C      0.322498061496    -0.706237562530     0.535515657302
O     -0.221397786632     0.220244253580    -0.187807727192
O      1.541781339844    -1.114160651092     0.397730373607
C     -0.547833534745    -1.327031370844     1.638123598182
H     -0.043079021117    -1.195248010912     2.603869001978
C     -0.764069589263    -2.811994029125     1.414545179225
H     -1.329678751230    -3.239982638296     2.268144120644
H     -1.354267962404    -2.960916011517     0.487496927187
H      0.208887063656    -3.338886037433     1.331937023335
N     -1.847901271573    -0.657447615767     1.632600602885
C     -2.680370265005    -0.718113600435     2.702676283876
O     -2.394114275048    -1.268575817152     3.793810142957
C     -4.026437343750    -0.144872746421     2.495268052669
H     -4.498929791878    -0.689972184246     1.662438991990
H     -4.604049076745    -0.268273455587     3.427242480962
H     -3.919826786782     0.923805543388     2.253529595796
N      1.147632366412     0.294680367005    -2.958533953513
C      0.539669078245     0.665455446061    -4.127239946321
C      0.769125810806    -0.052766523055    -5.280243784955
C      1.589477418897    -1.159303773139    -5.264633150892
C      2.168165945158    -1.522674091586    -4.077233220209
C      1.910918863979    -0.770263374043    -2.910540112381
H     -0.106813088852     1.535316309391    -4.148050220081
H      0.291310034378     0.247788620837    -6.199074123903
H      1.767759246000    -1.733937906731    -6.170027807165
H      2.803474995522    -2.383042904386    -3.996466123371
O      2.494043835294    -1.224883010176    -1.836268721467
H      2.108304016763    -1.037093197896    -0.823805944816

