# STO-3G

title

0 1
C     -0.887250750314     4.119371897121    -0.821407114320
C     -1.180115132867     5.146305452136     0.112948054679
C     -2.151487650622     6.120202948419    -0.167724577876
C     -2.855173349342     6.098137305846    -1.390264421969
C     -2.572950119030     5.087925351370    -2.329445605427
C     -1.599646674883     4.113324140742    -2.046835873781
H     -3.169977707149    -1.227081994947     1.748674040185
H     -0.644937311321     5.187373715433     1.058305440327
H     -2.359986186970     6.900833867114     0.561311316444
H     -3.605414991628     6.855733239786    -1.605594193294
H     -3.107825960108     5.059621446751    -3.276515479914
H     -1.392822541882     3.325551811472    -2.769110434204
C      0.109519247513     3.058327653149    -0.580479561471
H      0.259070477314     2.382143179510    -1.422209513261
H      1.851923664308     0.218840762728    -2.630470336787
C      0.777743715840     2.832030641781     0.576368846985
H      0.616275959826     3.438338256872     1.454937051347
C      1.714090455346     1.723730967248     0.785101288660
O      1.927549337412     0.897222963220    -0.154156033580
O      2.529259650708     1.739468368725     1.931903581191
C      3.309093807742     0.560868770254     2.168421728290
H      3.923635893814     0.708430977354     3.081979389336
H      2.645308301535    -0.314386740557     2.343819035068
H      3.996449862087     0.355200156951     1.317263891478
Pd     0.955265562007    -0.565094538377    -1.680572927097
C     -1.399676148865    -0.278759214818    -0.653703315849
O     -0.647125520609    -1.260322006797    -0.220282892494
O     -1.044401746920     0.366036175563    -1.717518803270
C     -2.706034601114     0.014210649614     0.106170742900
H     -3.494405025172    -0.578363415624    -0.378648845435
C     -3.118406211359     1.469852288012     0.065657463635
H     -4.068928359294     1.602930298974     0.621062515218
H     -2.340909026044     2.100857763408     0.543281704360
H     -3.258940337987     1.805978481646    -0.981939190611
N     -2.607722927661    -0.425835566879     1.497403833226
C     -1.606300483116    -0.037921189429     2.338790545424
O     -0.736875489364     0.819547890253     2.069132531731
C     -1.594083074181    -0.704906573205     3.657888995140
H     -1.458341448293    -1.785939937541     3.487691009326
H     -0.756063449138    -0.295876455639     4.248192101843
H     -2.557765425767    -0.498934055173     4.154482314203
N      2.541593975545    -1.738785361307    -1.142798006883
C      3.658508708683    -1.906233492140    -1.916362061698
C      4.736083822928    -2.614044215705    -1.429124894165
C      4.700638123641    -3.159811152813    -0.164977275136
C      3.572158508567    -2.976241655619     0.589144523326
C      2.488727078225    -2.243546326096     0.060057454914
H      3.695482024378    -1.485627964667    -2.914364281219
H      5.612246327071    -2.742398065478    -2.044515653609
H      5.546171764392    -3.721259619878     0.224251183566
H      3.480751471124    -3.376206181651     1.580019110294
O      1.472790352219    -2.133368924562     0.898031094619
H      0.620986352815    -1.691791924328     0.549661406290

