# STO-3G

title

0 1
C      0.514822868616     2.706871992781     0.359138780760
C     -0.509861893126     2.630990459723    -0.631145850487
C     -0.160201271476     2.663572416708    -2.011444400901
C      1.178687661950     2.786171547127    -2.386219748076
C      2.196037236896     2.884332406952    -1.397675070020
C      1.871876312750     2.842870659924    -0.040791994911
H      0.219993837390     2.799263992882     1.399075487210
H     -1.541062017848     2.720501822763    -0.301129685318
H     -0.942349156520     2.612636620046    -2.764898971744
H      1.449825580005     2.813691486369    -3.438828725515
H      3.232460159051     2.994335847174    -1.707405956675
H      2.645832456983     2.926448523064     0.716932633297
C      1.371806772758     0.665925420372     3.344078500836
H      1.583989526828     0.916595255294     4.380904801940
H      0.322588456667     0.675915279168     3.061029013392
C      2.329197556037     0.356785135001     2.435336538110
H      2.006262204865     0.129443693471     1.433813521025
C      3.786548285746     0.329375718012     2.727380854833
O      4.168479002922     0.582479016776     3.897611676116
O      4.767124189248     0.045156130380     1.753392171747
C      4.347576104739    -0.281325099467     0.420494792768
H      5.244900696607    -0.472885327213    -0.206909020653
H      3.733993436106    -1.208607102718     0.409924602133
H      3.791696697457     0.560472214435    -0.050040052090
Pd    -0.311088708993     0.411448728932     0.290723659025
C      1.321951635969    -1.351989366299    -1.274229963454
O      1.170965250329    -0.045707270469    -0.964584716212
O      2.262436952734    -1.781046375112    -1.966941570918
C      0.228264295166    -2.287247905673    -0.678020853159
H      0.706040551768    -3.257258531487    -0.488241041157
C     -0.916241503007    -2.481744891729    -1.649952043784
H     -1.673898020753    -3.163993536478    -1.213967702016
H     -1.396732208714    -1.503878464535    -1.862366011086
H     -0.540900669646    -2.918275971456    -2.599533055213
N     -0.326351841970    -1.647253266507     0.530250053254
C     -0.746066358798    -2.240013004748     1.615475278550
O     -1.332968337585    -1.607076837109     2.607181375537
C     -0.551018560552    -3.687537844571     1.818297313065
H     -1.069234661324    -4.233524565938     1.012614253651
H      0.532842672362    -3.894070365590     1.820074812643
H     -0.978546479703    -3.980517406667     2.795834325622
N     -2.123205751098     2.906741328335     1.999006704950
C     -2.764466307709     3.934647472028     2.634976879485
C     -3.607050732976     3.670645224416     3.699090344728
C     -3.809413781827     2.375499053572     4.125596250797
C     -3.155733513320     1.364194056041     3.468938967499
C     -2.304123014149     1.693270495005     2.384123857827
H     -2.606792519453     4.954304209410     2.303324325664
H     -4.105775627640     4.487173067177     4.194806736250
H     -4.471402784136     2.161942001140     4.960697826544
H     -3.281618623757     0.339515167705     3.753220274607
O     -1.704294597125     0.641729794176     1.810227867005
H     -1.562377928198    -0.574640271711     2.377000093423

