# STO-3G

title

0 1
C     -2.967522076921     0.568463591301    -0.753917804161
C     -2.631946755739     1.553554510859     0.218329620304
C     -3.409611461196     1.669006131877     1.406719518947
C     -4.500704773433     0.818098012886     1.616060106762
C     -4.835533083625    -0.162629035940     0.646491468111
C     -4.077593761792    -0.289008453251    -0.523961539067
H     -2.443102779706     0.538906082222    -1.704089951295
H     -1.852019211561     2.281558768616     0.012233203883
H     -3.149551368619     2.427736185695     2.139320377943
H     -5.094744399443     0.907650000519     2.521741321571
H     -5.684353880410    -0.820108854718     0.815556356381
H     -4.335331469047    -1.039264019249    -1.265967844730
C     -0.633952582212    -2.284643783202    -2.566993482479
H     -0.864300063608    -2.599194811375    -3.583170082916
H     -1.438628990661    -2.340490616142    -1.838074216455
C      0.595426382874    -1.859239364612    -2.178881603606
H      0.741319933999    -1.542392861173    -1.160461461190
C      1.774508294234    -1.733594828329    -3.051018366223
O      1.662982135521    -1.948106194419    -4.288461991392
O      3.017581367503    -1.426329341428    -2.469597579239
C      4.102789797739    -1.225309241833    -3.385265428745
H      5.024733363180    -0.979906511375    -2.815726409578
H      4.294982393826    -2.146299167660    -3.981182471316
H      3.884449976052    -0.377175066340    -4.073665529592
Pd    -1.070922997760    -0.252972903595     0.588967518372
C      1.417933488918     0.698474101304     1.650211108748
O      0.284341045103     1.159604433087     1.054216697248
O      2.337558833466     1.465418477640     1.982633961591
C      1.496597878766    -0.860484309621     1.883052044415
H      1.502010002524    -1.023443198821     2.972073746409
C      2.762019066116    -1.440024579133     1.286697648261
H      2.821394795243    -2.526542199276     1.488968707491
H      2.772199998934    -1.269972681922     0.190684904095
H      3.651794817628    -0.948370707742     1.732797097035
N      0.342344644740    -1.462978578493     1.239635155923
C     -0.340562224018    -2.591698628186     1.250714328588
O     -1.512667189437    -2.563963366833     0.680584002626
C      0.190225090958    -3.827021262654     1.842989355780
H     -0.590865084628    -4.605418831998     1.777458355266
H      1.074337525620    -4.129550805245     1.258966084334
H      0.451929100056    -3.628042351247     2.896106466905
N      0.818846923417     1.286290481159    -2.100887653402
C      1.567675063914     2.244295606295    -1.469259849880
C      1.197032389205     3.576068555846    -1.552863705501
C      0.069781095753     3.947320079935    -2.256467126779
C     -0.665009086132     2.964759445587    -2.869765503681
C     -0.230707085784     1.628187976833    -2.752745134462
H      2.452348892487     1.957311293895    -0.912895537877
H      1.788670268035     4.318452342005    -1.043272700598
H     -0.230797627286     4.989710639121    -2.317165204537
H     -1.555200803887     3.173701082078    -3.427624430710
O     -1.045184568553     0.727678657367    -3.361797538969
H     -0.728080624995    -0.194657048968    -3.207839823314

