# STO-3G

title

0 1
C     -2.986092750594     0.478437643506    -0.713644650486
C     -2.981438609380     1.254598417442     0.481202112020
C     -3.961108779199     1.008924331229     1.485897330617
C     -4.924169142007     0.010359761998     1.297971223118
C     -4.928619987462    -0.759335419099     0.106366107872
C     -3.970015271121    -0.531083396584    -0.888730082623
H     -2.304651358794     0.711610481301    -1.525272286284
H     -2.300532557440     2.095171465965     0.583607817578
H     -3.955567987575     1.609333518253     2.391224219226
H     -5.670389361522    -0.177386002634     2.065345732613
H     -5.677668262155    -1.534547679726    -0.032081879129
H     -3.970487186098    -1.122954880782    -1.799268366063
C      0.462155541779    -1.427369142556    -2.001570368426
H      0.014134155097    -2.408343780348    -2.141960717861
H     -0.058736352659    -0.767295712630    -1.311783172101
C      1.621606609458    -1.021066778342    -2.573221936678
H      1.978133999707    -0.021988199733    -2.359614856781
C      2.457020081372    -1.842982876698    -3.465034799582
O      2.121559561278    -3.029599249088    -3.727521500059
O      3.635221557064    -1.283533394976    -3.988458435532
C      4.404129918291    -2.133185019334    -4.851649787786
H      5.304494544319    -1.583907814945    -5.202238447641
H      4.742512843254    -3.045781241498    -4.310393433597
H      3.809822915204    -2.431910418813    -5.744978722447
Pd    -1.259306170656    -0.398520282861     0.801393523065
C      1.085330343348     0.634966466039     2.082683050011
O     -0.087246594650     1.062801283721     1.536635503954
O      1.893903437641     1.430469163249     2.590123170558
C      1.370029200611    -0.915058131619     2.007261215214
H      1.495021103487    -1.273054861801     3.040299594287
C      2.634642531324    -1.194191095496     1.222620790923
H      2.871441808663    -2.275139530442     1.247556720668
H      2.496212893352    -0.872242490648     0.170582613215
H      3.487851838822    -0.636742944169     1.662998510946
N      0.247244398529    -1.539051342262     1.339585891583
C     -0.258804757523    -2.714719177873     1.040829684285
O     -1.434076578215    -2.708217371139     0.467663132132
C      0.452621016880    -3.971971322674     1.306774862619
H     -0.216892785632    -4.810013898241     1.042686948531
H      1.351679293219    -3.994545585642     0.670158627827
H      0.714706313365    -4.006986586751     2.377902835375
N      0.688108345266     1.960857507973    -1.441527715554
C      1.060508426014     2.917147933840    -0.533025252051
C      0.368795380723     4.115260442263    -0.471023369905
C     -0.699633394561     4.352767076774    -1.310830299476
C     -1.051949835207     3.373579918036    -2.204417580432
C     -0.306103642511     2.177235230039    -2.220861759392
H      1.901451188294     2.737984883924     0.126268974760
H      0.666494836522     4.856025990392     0.252747186621
H     -1.250009938655     5.288389627029    -1.261357602072
H     -1.873967706673     3.482318760181    -2.882883832306
O     -0.760306414059     1.259938837904    -3.115968069308
H     -0.235898956323     0.427545340239    -3.072457472915

