# STO-3G

title

0 1
C      1.701143627316     1.899830423782     0.913544967338
C      0.452936159856     2.121475236251     1.563123006573
C      0.250702363936     1.646158095500     2.889214191318
C      1.280181901121     0.970774428275     3.553773579945
C      2.528020301074     0.765176567563     2.912922231204
C      2.735551727259     1.221495518005     1.608228625793
H      1.900904565977     2.319982201832    -0.069544425253
H     -0.295223019975     2.764301830364     1.103273867799
H     -0.701985506350     1.824847560792     3.379390052977
H      1.125185738993     0.603795717913     4.564765332016
H      3.322993870049     0.240154990258     3.434847466314
H      3.687004821606     1.056559304692     1.114210595140
C      0.348583773685     0.625611469491    -3.535174927009
H      0.716997445082     0.256157743228    -2.580085837093
H      0.638332897779     0.037252438585    -4.400315863045
C     -0.433036217345     1.726822240362    -3.653214904796
H     -0.804825323739     2.040137699909    -4.617350224042
C     -0.835018259704     2.577445392112    -2.523781829789
O     -0.204647893794     2.480933886626    -1.435012173141
O     -1.724796346207     3.638910065495    -2.759856447388
C     -2.100163645074     4.399965981604    -1.603540231240
H     -2.820015997729     5.192112469268    -1.901664195640
H     -2.594066928084     3.747051102432    -0.847284952913
H     -1.211634331655     4.892127572382    -1.146705657368
Pd    -0.021425817024     0.296947356888     0.026432790963
C      0.890877060163    -2.428715768890     0.062771411195
O      1.238142439061    -1.195186120959     0.517910856618
O      1.564684602578    -3.436125683655     0.342146379635
C     -0.368181065587    -2.491611993513    -0.867710511964
H     -1.054050276665    -3.238794797698    -0.440876273177
C      0.023891860081    -2.912799329430    -2.269045131493
H     -0.858985510424    -2.898345734203    -2.938340814628
H      0.787890740387    -2.212489142023    -2.664851036687
H      0.450171218343    -3.937691742858    -2.251929670191
N     -0.951963440185    -1.164787089765    -0.928711818933
C     -2.133690496399    -0.626419206725    -1.160774477174
O     -2.280117465357     0.639798238814    -0.921831294611
C     -3.265277206474    -1.406253473433    -1.691364781489
H     -3.549096826049    -0.958798122519    -2.658963953939
H     -2.975847854168    -2.459857676663    -1.822235721828
H     -4.099216725702    -1.321852498718    -0.973095844713
N      3.164282004674    -0.176526969920    -1.856380014293
C      3.903111551631    -1.151699236322    -1.239744865939
C      5.182150430774    -0.867658109391    -0.790340030981
C      5.715205798727     0.395553492503    -0.945199272532
C      4.942925805766     1.355908535633    -1.547084339957
C      3.647355677639     1.005028903666    -1.982302119145
H      3.497084327792    -2.149200277820    -1.127917518935
H      5.754320847114    -1.643565983954    -0.309295539009
H      6.716264541068     0.625320179615    -0.590695058321
H      5.281243769352     2.362035658954    -1.690286507901
O      2.965526887055     2.033908804482    -2.545829883268
H      2.067059656372     1.749736693810    -2.832543973963

