# STO-3G

title

0 1
C      0.939475094972     1.714896643033     0.590785435706
C     -0.239757316848     1.533025391668     1.371253379599
C     -0.126221132676     1.212955461879     2.754446633478
C      1.136748970311     1.079552473166     3.339796023051
C      2.308346460252     1.276403868154     2.564834695268
C      2.211859406561     1.591245849151     1.206344244593
H      0.855928838383     2.032977352414    -0.443447765976
H     -1.211684620605     1.779125363542     0.948811800964
H     -1.026782497179     1.083656345799     3.348760066837
H      1.223548312583     0.824175123328     4.392530400314
H      3.284604838419     1.172869232968     3.030465999550
H      3.107618409412     1.745308567992     0.611161290794
C     -1.051551597842     1.883317347850    -2.353347179497
H     -0.232994139758     1.547406084569    -2.984017648471
H     -1.764161724035     1.109780327253    -2.082310042851
C     -1.169359772144     3.151282727505    -1.893171084626
H     -1.995660711807     3.417893478421    -1.247541211402
C     -0.231117712532     4.246290991626    -2.194914599285
O      0.817785463007     4.016080468440    -2.857119482344
O     -0.487619613230     5.518119987825    -1.653529178849
C      0.491436516336     6.528334343335    -1.934713698730
H      0.181168658950     7.484204530768    -1.460261466156
H      1.485076770085     6.241934605978    -1.520936971591
H      0.582071640994     6.697600953779    -3.031775253130
Pd    -0.071101606591    -0.463020585117     0.069379811349
C      1.547974991889    -2.772085765672     0.508183799291
O      1.420655469086    -1.477477252839     0.921698251510
O      2.489554257018    -3.477144667777     0.905097044191
C      0.412675589347    -3.319786401413    -0.431556260062
H     -0.156156182147    -4.056419190979     0.158210274509
C      0.986380929946    -3.997848436712    -1.658063354811
H      0.178145608165    -4.340372303088    -2.332513756602
H      1.636978119702    -3.291588482787    -2.211016239628
H      1.596721898876    -4.873784353510    -1.353757545140
N     -0.417844936236    -2.193842928060    -0.850767056753
C     -1.690209015487    -2.018763864986    -1.200066503454
O     -2.158667183795    -0.813076420638    -1.154831645457
C     -2.559222880801    -3.128510748730    -1.626672679890
H     -2.870991041689    -2.927151892675    -2.665987927297
H     -2.020695156155    -4.085768234252    -1.562989719857
H     -3.441307597708    -3.142535539720    -0.962624287643
N      2.758250056342    -1.030456147938    -1.723771014814
C      3.988916219189    -0.806079730086    -1.169030210287
C      4.673395305037     0.360794596966    -1.470360822356
C      4.118199722339     1.298775604773    -2.320121231384
C      2.877211030379     1.045027100361    -2.847213228193
C      2.234318794159    -0.160239562149    -2.500484309746
H      4.422655370564    -1.541469907128    -0.501107817618
H      5.642878776327     0.531643488634    -1.033239874375
H      4.644784194763     2.219743872508    -2.555206937008
H      2.372757354213     1.742495890125    -3.488540079452
O      0.988176876015    -0.307089055794    -3.022352254615
H      0.508802850510    -1.030864692249    -2.554930554756

