# STO-3G

title

0 1
C      0.725743376177     1.597106365071     1.632427469513
C     -0.135659358128     1.077682527534     2.642442485866
C      0.420771474264     0.444445608676     3.788592198661
C      1.809941085007     0.338470367602     3.922867202524
C      2.666743368438     0.862521921817     2.922181348995
C      2.133355220971     1.484566423242     1.789651901181
H      0.327723380866     2.161125590794     0.794569624009
H     -1.207333449795     1.262817716338     2.596676853013
H     -0.240144409526     0.054591997408     4.557898491272
H      2.235230034296    -0.151928173440     4.794612531093
H      3.743804479615     0.767132157921     3.029623252318
H      2.780542801565     1.873214700126     1.010257112234
C     -1.515084879169     1.520502689403    -1.642899672608
H     -1.396279124504     0.848673635505    -2.493140892661
H     -2.003715530469     1.092092176987    -0.773727597686
C     -1.096708786450     2.808879607189    -1.666842339248
H     -1.217450975253     3.431896513363    -0.789844208367
C     -0.437827477517     3.461922107865    -2.811498903921
O     -0.280780297278     2.828606594899    -3.891024987758
O     -0.047854031178     4.807154823333    -2.688532384412
C      0.626834169324     5.367668385632    -3.823529406895
H      0.892049249395     6.425219290200    -3.609300198034
H      1.566597886036     4.809590641898    -4.038708757412
H     -0.029031176483     5.348427925828    -4.723435056294
Pd    -0.215443581641    -0.492562948084     0.794390204811
C      1.539562435911    -2.460999933810    -0.307658281770
O      1.552969016359    -1.407234135819     0.556120111418
O      2.561990846452    -3.123286589714    -0.552063677208
C      0.151396724034    -2.807797100090    -0.967274577109
H     -0.067767270483    -3.859559076718    -0.730001691407
C      0.199457601921    -2.627051708918    -2.469768934886
H     -0.769109903431    -2.911869947832    -2.925012771212
H      0.410565485631    -1.564714988467    -2.710384158815
H      1.001566862395    -3.259923636571    -2.903624577742
N     -0.836582492807    -1.898022158011    -0.423787182654
C     -2.135763030157    -1.727768817226    -0.327563023172
O     -2.539034748316    -0.694546218395     0.367817687690
C     -3.110061396003    -2.637031541067    -0.948467369827
H     -3.689179048543    -2.055581000544    -1.685735206455
H     -2.583649284330    -3.473312871473    -1.435184868068
H     -3.774648111578    -3.015591924453    -0.152236894888
N      2.627984031098    -0.255072365521    -2.190653176914
C      3.744875367780    -0.962621166926    -2.548063066615
C      4.976136787693    -0.329208336120    -2.596663108767
C      5.088677938830     1.006710285365    -2.267425875952
C      3.953676876004     1.682896705372    -1.897692191255
C      2.731464022874     0.979084182359    -1.872116481600
H      3.659698664042    -2.011021216309    -2.808576645858
H      5.848713687707    -0.893518818391    -2.879583752047
H      6.052426225987     1.507554163058    -2.294919892040
H      3.962386580738     2.716060808883    -1.618170050217
O      1.674157965422     1.722677545214    -1.454392022549
H      0.860826701577     1.170114749114    -1.410999728309

