# STO-3G

title

0 1
C      0.830479934073     1.744685628478     1.876420061204
C     -0.315534756401     1.171955008910     2.499937041608
C     -0.145103166748     0.245875129521     3.566144212733
C      1.141871294097    -0.092800941865     3.997454157370
C      2.280142493207     0.489193147834     3.383865998728
C      2.130701270988     1.399111718568     2.332838644533
H      0.711382283806     2.524746646715     1.132513368191
H     -1.312677774686     1.529096999877     2.248502403591
H     -1.019845322648    -0.187678124216     4.043444694587
H      1.271219022468    -0.806824354381     4.806772851120
H      3.273318072565     0.219477482437     3.733270486738
H      2.995882552190     1.843510770753     1.851602089851
C      0.807639520196     2.055783760539    -1.615348574537
H      0.870679935736     1.363546309175    -2.452035533349
H      1.597075529129     1.949162105739    -0.876559878403
C     -0.206738694692     2.943044987587    -1.487335174727
H     -0.248087224039     3.605905899548    -0.632082049897
C     -1.339636609382     3.060433785663    -2.421346354251
O     -1.368971670754     2.359539619667    -3.471816123769
O     -2.312250596043     4.045612777775    -2.174144326739
C     -3.402181670928     4.095359547616    -3.105062902712
H     -4.106527450927     4.900506319470    -2.804395132454
H     -3.035666301384     4.319355254658    -4.132590189258
H     -3.958781912358     3.130664034704    -3.111191878343
Pd    -0.072162005625     0.026592319719     0.374365686272
C      1.332586767932    -2.396694438994    -0.225352063180
O      1.348661676952    -1.371767608866     0.673692802572
O      2.054142028226    -3.401041231473    -0.090205634448
C      0.379606340864    -2.209042285106    -1.466314348492
H     -0.182023713437    -3.144582077031    -1.598164831269
C      1.180361962050    -1.923864745328    -2.720264080788
H      0.504768994769    -1.790953304379    -3.588280371499
H      1.768405559875    -0.995323888558    -2.578771636860
H      1.876592310361    -2.763477498469    -2.926722824073
N     -0.480086753080    -1.073293947622    -1.190538480659
C     -1.602038492964    -0.517325481550    -1.605780801437
O     -2.021605624729     0.518265323320    -0.934434708585
C     -2.356604295764    -1.015775935091    -2.765730371305
H     -2.362558748391    -0.210764813643    -3.522126928968
H     -1.875996030671    -1.921595554992    -3.165656538522
H     -3.384976355897    -1.236929303922    -2.432490210220
N      3.709255979863     0.746027741370    -0.759492267233
C      4.068110035991    -0.418871762770    -0.131888617132
C      4.712553885341    -1.414050513458    -0.845608344004
C      5.006994243474    -1.243481502938    -2.181718769900
C      4.640272007392    -0.064818152004    -2.779895244400
C      3.980450161833     0.908616547760    -2.002256594659
H      3.845769116285    -0.560630117749     0.918815766530
H      4.958411528916    -2.339122066134    -0.348112584399
H      5.507527074300    -2.025707747880    -2.745919615882
H      4.830938965049     0.139731756518    -3.814106082450
O      3.625418787707     2.014930734323    -2.701969054576
H      3.064472789033     2.607659473407    -2.159122219710

