# STO-3G

title

0 1
C     -2.631254292936     0.010684497064    -1.540293840146
C     -3.349671101956    -0.118135496548    -0.314892934974
C     -4.118804843996    -1.291924681813    -0.067397840315
C     -4.162680434995    -2.316487770459    -1.020068408207
C     -3.454008248752    -2.183806440511    -2.242119471067
C     -2.700666041717    -1.033496826394    -2.502987168338
H     -2.105029013613     0.932659060434    -1.768835542274
H     -3.390685037072     0.717182096229     0.379002940550
H     -4.672247660914    -1.379414268900     0.863586946900
H     -4.741701289869    -3.215414765363    -0.826225808040
H     -3.491825071569    -2.982331251503    -2.978166009420
H     -2.166419362180    -0.933122140567    -3.443877355162
C      2.128955487354    -0.119512956130    -1.986269205867
H      2.906038374441    -0.692671106931    -1.486807413931
H      2.144102617518     0.952161373735    -1.813557741689
C      1.182241939735    -0.701176776538    -2.759656472525
H      0.410048503036    -0.092703117996    -3.214359893231
C      1.094096290842    -2.145677891211    -3.031575265036
O      2.005269608085    -2.920422345723    -2.625406876122
O      0.038104608491    -2.613028938428    -3.833553303787
C     -0.104497223722    -4.038034234765    -3.899236247082
H     -0.974402101875    -4.292028738146    -4.541553276220
H      0.803795598648    -4.508480372705    -4.339446441281
H     -0.287133589296    -4.459093566404    -2.883541973258
Pd    -1.086139620168    -0.693675440077     0.213046258037
C      0.120944513708     0.860162568682     2.284202135546
O     -0.983792929862     0.854964435057     1.482346516223
O      0.322419894744     1.754270149564     3.121756437473
C      1.113841292109    -0.357441108725     2.115079659398
H      1.119720580750    -0.898707245560     3.073984603204
C      2.515555691345     0.115924669027     1.798757390235
H      3.207497387636    -0.746411288533     1.740994394649
H      2.514878573343     0.653437458668     0.829884786161
H      2.871422262004     0.805942999571     2.592061829858
N      0.630250765754    -1.184237809137     1.026768676258
C      0.783160563353    -2.370456389365     0.480298958676
O     -0.116103405681    -2.710216512049    -0.409004465505
C      1.904025810495    -3.258259242918     0.812963917274
H      1.773164174136    -4.200274028461     0.250476296782
H      2.833138768495    -2.763517242212     0.487841580571
H      1.899036548632    -3.443315315825     1.900125266252
N      1.092960012128     2.799584574531     0.123447875910
C      1.474902969832     3.857058245736     0.905248637680
C      1.044413371313     5.135981999649     0.591919991315
C      0.211310336217     5.348744549431    -0.488911553517
C     -0.171264463647     4.264406041744    -1.237993102314
C      0.302423221723     2.991269823703    -0.862948528283
H      2.126881390622     3.691742594906     1.755100513859
H      1.351078056908     5.962994241305     1.210296381385
H     -0.139057231890     6.347708689213    -0.733903505186
H     -0.830614093063     4.346809587726    -2.077558675683
O     -0.161168399545     1.968698284185    -1.631266338439
H      0.122933605654     1.110896369833    -1.238175045566

