# STO-3G

title

0 1
C      1.843543002122    -1.295007788398    -1.308393706649
C      2.114498673418    -1.772615648612     0.007018751289
C      1.870214194806    -3.139593805025     0.332560110524
C      1.352405319311    -4.006459249710    -0.635983716456
C      1.090921914936    -3.532734072781    -1.949194700812
C      1.337168161698    -2.196378952826    -2.284015666127
H      2.120453312915    -0.276246425790    -1.563767576580
H      2.630435005439    -1.118561558761     0.703335944638
H      2.096434127216    -3.500278083662     1.332469902587
H      1.154159647011    -5.045746064434    -0.387363328545
H      0.693770673230    -4.214327165195    -2.696821594606
H      1.148673940434    -1.843348741943    -3.293927244706
C     -0.839012689339     1.933379904083    -1.627458225930
H     -1.855674248980     2.151094043585    -1.307960038947
H     -0.052279122018     2.471561565774    -1.107812367864
C     -0.540434168614     1.029163421603    -2.587918765295
H      0.496594886132     0.843154849933    -2.827165889352
C     -1.535228204005     0.219659921978    -3.310289586738
O     -2.767495353319     0.398366477575    -3.096921108167
O     -1.085053914316    -0.712733540333    -4.260747723973
C     -2.079340434993    -1.613468487405    -4.766264901457
H     -1.609108063704    -2.310251783966    -5.492662014939
H     -2.516094132731    -2.218049369645    -3.938062748732
H     -2.889719884473    -1.057621497753    -5.289960535988
Pd    -0.056236292573    -0.786115621831     0.213060843130
C     -0.539938990292     1.518210101760     1.911482365519
O      0.496477760368     0.754362656289     1.453901780066
O     -0.363433276895     2.604956918270     2.483598333061
C     -1.974014186119     0.920234153643     1.662365101817
H     -2.597720676153     1.735297921272     1.267844442085
C     -2.581892088438     0.407324948615     2.950051875582
H     -3.613865126844     0.048539325253     2.764389530055
H     -1.972636619461    -0.435434585516     3.337954076173
H     -2.614714322922     1.218021806828     3.708014388435
N     -1.847553289379    -0.187105225888     0.740896272014
C     -2.561020109419    -0.876511353812    -0.120768705234
O     -1.893352531290    -1.733382685235    -0.852238959089
C     -4.007270187968    -0.681215173013    -0.283254660961
H     -4.501213001187    -0.914838417742     0.672838084596
H     -4.173455299709     0.366725379105    -0.583812215359
H     -4.361123927189    -1.357835741490    -1.082114710282
N      2.657651384748     2.095064314742    -2.071140504283
C      2.647176086077     3.137519218315    -2.958273673878
C      2.426035240487     4.427844805064    -2.508614955011
C      2.236505553126     4.679271201435    -1.165717045823
C      2.267607270813     3.619761457227    -0.295692542826
C      2.498148745037     2.320433180237    -0.816569998382
H      2.791822180043     2.945579015883    -4.014988517696
H      2.410874220856     5.239247657119    -3.217349967905
H      2.071835019558     5.691618961024    -0.806208247522
H      2.149573168729     3.752437657836     0.762409397294
O      2.552809999724     1.309276684059     0.079713471165
H      1.837928189546     1.310720598502     0.792216172894

