# STO-3G

title

0 1
C      0.166176809432     3.673327098832     1.400941565427
C      0.916528036812     2.629600191345     2.015350780292
C      2.317498285812     2.530526730891     1.779024608863
C      2.964691795060     3.498454972357     0.965245833380
C      2.219685044786     4.537607634859     0.391139593416
C      0.818894054761     4.619937074264     0.600945165690
H     -0.908689481614     3.684768254626     1.548738550770
H      0.435170441530     1.956115520506     2.718893171633
H      2.895383411732     1.762923068072     2.286453289223
H      4.034711387369     3.426683755504     0.791360310561
H      2.713756894177     5.275173599950    -0.236088999358
H      0.248930836860     5.410684735299     0.120653393893
C     -2.104927175802     2.960955141765    -1.287047383145
H     -2.051902395814     2.756639224548    -2.353373503397
H     -1.150719855164     2.905512661757    -0.773246265114
C     -3.251657495964     3.277508777460    -0.636424895020
H     -3.231449144521     3.433350648489     0.434100949238
C     -4.575680338425     3.383261196941    -1.273612131881
O     -4.708434628388     3.114342109464    -2.498518226156
O     -5.681457176347     3.727109284864    -0.477001054561
C     -6.947019083760     3.782900020666    -1.150282942440
H     -7.738792388659     4.064490347768    -0.423001105285
H     -6.931152649063     4.546850483795    -1.960524600498
H     -7.209551110773     2.790498824400    -1.582321031478
Pd     0.932045503003     1.040699172962     0.276884685715
C      0.037582287189    -1.538478808321     1.090621362393
O      0.629270634913    -0.419955993055     1.607791250653
O     -0.294848661561    -2.495386688999     1.810170684917
C     -0.193432913906    -1.551658109880    -0.468524702961
H     -1.272254025281    -1.694965165084    -0.618586303742
C      0.572024500336    -2.678696637182    -1.128335390981
H      0.331850936832    -2.720426380908    -2.208606906089
H      1.661286883571    -2.508083897010    -1.003256871238
H      0.297076991708    -3.649402644430    -0.664742127146
N      0.276575456433    -0.289803515785    -1.010638058850
C      0.140693927959     0.469804421440    -2.074249820512
O      0.608556648628     1.687496434335    -1.985783348675
C     -0.532737874569    -0.004023762256    -3.291311250515
H      0.051967393546    -0.842777236026    -3.702087630646
H     -1.551527091161    -0.324788283588    -3.015987045669
H     -0.572304895036     0.826436151814    -4.019494611061
N     -2.535487387711     2.041575144297     2.394378480289
C     -2.658118951485     2.322686595892     3.729576303526
C     -2.783158136352     1.294399635063     4.645960915010
C     -2.791070307841    -0.020175286094     4.224886505072
C     -2.690331494334    -0.270673600671     2.881662116044
C     -2.555246974406     0.817754641432     1.997426804852
H     -2.644274919166     3.352875306947     4.065645953549
H     -2.864801364986     1.524110856373     5.695344617837
H     -2.874380708585    -0.835456175634     4.938656828635
H     -2.668613256121    -1.268316750782     2.489324671559
O     -2.441887407815     0.459063568937     0.699876073169
H     -2.370478418361     1.239560891585     0.102147357309

