# STO-3G

title

0 1
C      0.529491402357     2.990754686940    -0.428592071406
C      1.284097058383     3.798982784805    -1.294064557479
C      0.883829653541     3.942209416980    -2.643538531010
C     -0.258166103287     3.271453893270    -3.130949487642
C     -1.024597847030     2.475946533798    -2.257392994136
C     -0.639502108122     2.333037318468    -0.897702257515
H      0.805546084204     2.857558096062     0.612847037635
H      2.162836277757     4.324751592570    -0.927619054179
H      1.457753407796     4.583219297351    -3.309906475425
H     -0.559398565973     3.393678395730    -4.168317997653
H     -1.941735856409     2.004721234202    -2.603482377766
H     -1.388367822497     2.039132527556    -0.127839058326
C      0.376568325635     0.526112128860     2.610959065834
H      1.340532183124     0.069211600854     2.824069292071
H     -0.345928337688    -0.114019949263     2.111847555844
C      0.052295167068     1.804446497649     2.915110738761
H     -0.924394098725     2.178403573968     2.639550115370
C      0.944280086175     2.747667224122     3.608996398643
O      0.541186142054     3.921248741767     3.825298275667
O      2.247521796214     2.348181127906     3.962471584565
C      3.052182901815     3.340187364476     4.614904611718
H      4.050323611789     2.910204590361     4.846070841556
H      3.198187349584     4.226270308022     3.956359281714
H      2.582150781156     3.663557149272     5.571324897023
Pd    -0.380311232138     0.007376256153    -0.514608094121
C     -1.459778882327    -2.634595027864     0.042613542621
O     -0.282758523284    -1.945816241663     0.085884060602
O     -1.566830706294    -3.825451281156     0.361978359952
C     -2.636768895369    -1.738552168628    -0.451696790763
H     -3.545840488725    -2.142420790742     0.010827083914
C     -2.798538147765    -1.806521015462    -1.954103564060
H     -3.653349418734    -1.170130361809    -2.263684249273
H     -1.879252158292    -1.434849136610    -2.450938714493
H     -2.991009510403    -2.852861395716    -2.272194790158
N     -2.337473976650    -0.338488435977    -0.101456494467
C     -3.035093284749     0.467252733333     0.717244538270
O     -2.617535088894     1.602685188607     1.114856175416
C     -4.382617841144     0.042165908626     1.163615711651
H     -5.000007201042    -0.159608963103     0.272203535235
H     -4.276173905620    -0.844564376664     1.809889139724
H     -4.836597028855     0.864380635976     1.748358581168
N      1.696525654473    -0.027978945224    -0.853400797308
C      2.256270753744     0.724011915099    -1.851693453858
C      3.628212480467     0.819013194399    -1.965420272686
C      4.450710122142     0.154947314883    -1.083750285802
C      3.871388033103    -0.629326469135    -0.122849149297
C      2.465216797497    -0.720665046292    -0.052909774595
H      1.622049024791     1.235700107457    -2.561136694035
H      4.053276854467     1.426563612596    -2.747151647420
H      5.531778446076     0.233008147499    -1.162648140538
H      4.453342401136    -1.199669169552     0.573517256393
O      2.025819599799    -1.555102688422     0.865445555545
H      1.045590326851    -1.855357065862     0.726237466041

