# STO-3G

title

0 1
C      0.679108162818     3.073321800647    -1.436991024874
C      1.584072172741     3.416293763637    -2.455315483435
C      1.297932889014     3.059210648198    -3.793016198026
C      0.120675272656     2.347970325926    -4.112386525790
C     -0.784260631670     2.005028186279    -3.090063190590
C     -0.515280734547     2.368608451160    -1.743976268634
H      0.865787267728     3.352757346935    -0.404027202413
H      2.491275672594     3.968709091688    -2.221131293284
H      1.987155209637     3.345591144600    -4.584968377690
H     -0.094260514117     2.088379070452    -5.145991932805
H     -1.718723536023     1.502504416903    -3.329686713205
H     -1.354799001419     2.455999205725    -1.015070265264
C     -0.139577768768     2.286641755842     2.165679186276
H     -0.701732872372     1.578593927045     2.771819681207
H     -0.719127619338     2.804515780022     1.406897370995
C      1.181468201605     2.510964418298     2.353041664758
H      1.717249988559     3.200116292737     1.710366707048
C      2.005564450534     1.847937624087     3.376129287359
O      3.234531579677     2.123356023699     3.436122968881
O      1.395844144374     1.009664534620     4.328622264959
C      2.290213821372     0.291753795236     5.188610051499
H      1.700480824671    -0.345867964895     5.881327160611
H      2.958218609420    -0.370619104497     4.591909586394
H      2.905574130228     0.993257671504     5.796038299979
Pd    -0.450453891612     0.435868530429    -0.333336044724
C     -1.661222863888    -1.551222612437     1.406454193477
O     -0.446487153643    -1.019185553645     1.094855403858
O     -1.821490116940    -2.432197856772     2.261823564785
C     -2.807231328906    -0.924443750227     0.558464049689
H     -3.710914518293    -0.987690280268     1.177130402694
C     -3.046652259828    -1.703770019236    -0.716282691907
H     -3.880314485198    -1.241020268768    -1.283765871127
H     -2.133518914421    -1.686590686466    -1.345725679341
H     -3.309335101418    -2.756242917966    -0.478740016176
N     -2.419474268772     0.446409532177     0.175805550473
C     -3.108856231001     1.576869085534     0.394432610769
O     -2.655271250959     2.743022732358     0.147989151202
C     -4.489494892861     1.486477795480     0.925651973403
H     -5.086352697319     0.852531889787     0.248709824759
H     -4.446221892007     1.081078727318     1.950003637477
H     -4.924244256835     2.503301871639     0.956838323710
N      1.602449855681     0.074195589268    -0.638334108012
C      2.160412445591     0.238194750851    -1.878464424020
C      3.527960293341     0.156235063086    -2.044112705785
C      4.348532099177    -0.096575219791    -0.968264423855
C      3.767669785809    -0.308502735736     0.252431096698
C      2.364259135245    -0.243051802151     0.377276711074
H      1.527977104956     0.422439991234    -2.733993517464
H      3.952433923097     0.305182076783    -3.023020886222
H      5.427404131633    -0.147114291961    -1.088566579814
H      4.345694925661    -0.531272050155     1.127604168321
O      1.919641074129    -0.522224116551     1.582426073028
H      0.911261596585    -0.750791639881     1.615956034957

