# STO-3G

title

0 1
C     -0.336610127502     3.346413533752    -0.460477034866
C     -0.015634282668     4.149210593443    -1.565683074003
C     -0.618770641966     3.885359826036    -2.819072415552
C     -1.535423799792     2.824464604697    -2.963991610595
C     -1.879365931579     2.038662001997    -1.844808075947
C     -1.280443006086     2.293523637345    -0.583232349271
H      0.097145393031     3.538479064570     0.514904218918
H      0.678823270249     4.979248480701    -1.456615163402
H     -0.381200192294     4.514712178832    -3.674356154027
H     -1.999482830293     2.634583444413    -3.928589042123
H     -2.640558839771     1.266801004832    -1.927287395154
H     -1.744943111218     1.938288069364     0.358869436762
C      0.545500988941     0.561163171941     2.813215785917
H      1.397536723403    -0.113584776605     2.818205867715
H     -0.435951531823     0.109481874128     2.905973331240
C      0.664530382288     1.903331872700     2.686028995560
H     -0.228172779627     2.513366829663     2.669421126753
C      1.946611404104     2.613895412866     2.545993177136
O      1.933583139294     3.862549043312     2.376423712761
O      3.150457487926     1.886508472969     2.514034492777
C      4.334438713027     2.642623921323     2.228589018045
H      5.211774117507     1.961051303929     2.227659357331
H      4.263649584949     3.118538539434     1.224306915399
H      4.500210436188     3.426021436756     3.002343655465
Pd    -0.404723981413     0.109113865176    -0.073949054216
C     -0.962570757143    -2.664395683525     0.616979441162
O      0.084359134647    -1.802159589813     0.484853397635
O     -0.835371681568    -3.851975765837     0.942551978340
C     -2.324778599294    -1.968646993615     0.311200118841
H     -3.081891000056    -2.498841998844     0.902129163835
C     -2.695293917433    -2.086569428287    -1.150672386257
H     -3.673156385796    -1.592109672413    -1.326105155511
H     -1.926581738750    -1.589186718880    -1.776799747311
H     -2.771219394178    -3.155370815120    -1.442085631336
N     -2.196994411436    -0.533735985822     0.620368391136
C     -2.870638485114     0.169930993836     1.548700751687
O     -2.570435838221     1.360120630293     1.886934282229
C     -4.053634530516    -0.447472625332     2.193244443060
H     -4.763580243540    -0.749849808244     1.405047574635
H     -3.717421794051    -1.301398486666     2.803937355465
H     -4.530196950550     0.304209605841     2.850332524206
N      1.583909103759     0.420673997032    -0.710741091988
C      1.858643941783     1.312875072595    -1.712488440247
C      3.164094539322     1.639110250252    -2.018582752688
C      4.208192520686     1.062309051050    -1.333013570741
C      3.916143777833     0.135317838244    -0.370357239080
C      2.569076714395    -0.183551845816    -0.093680837784
H      1.053259651571     1.742232185595    -2.286469963258
H      3.360700281359     2.351927853515    -2.802326627642
H      5.238067827605     1.318676073493    -1.566145694738
H      4.679392288701    -0.373662976146     0.183215945800
O      2.417717547860    -1.132956667522     0.802930767041
H      1.470032119042    -1.559389645305     0.825597331125

