# STO-3G

title

0 1
C      1.171507500420     2.804378804320    -1.019638389686
C      1.689913021608     3.467138815331    -2.144644668387
C      0.873615824123     3.652553602330    -3.284013083225
C     -0.453254876467     3.170204842658    -3.304505692862
C     -0.970894858294     2.509972378372    -2.174342311912
C     -0.164261720051     2.320448411694    -1.020138133166
H      1.770550147547     2.658779915417    -0.125736249076
H      2.707935417734     3.850104161759    -2.136467365904
H      1.268538347527     4.182985076022    -4.148314742833
H     -1.076684954794     3.330623518644    -4.180672742075
H     -2.008036311508     2.181910719994    -2.157455250167
H     -0.675006217109     2.205970727794    -0.021455689430
C      1.776597264510     0.663650837296     2.071821824661
H      1.240087077588    -0.225360606484     2.394216468696
H      2.563735670738     0.491986044722     1.342628151216
C      1.508221267349     1.899946569753     2.551706114924
H      2.068884976326     2.753705641039     2.193498080576
C      0.471333820139     2.213051452262     3.548622791616
O     -0.219568695687     1.284959865411     4.057254367776
O      0.362979042042     3.537443262107     4.009060809297
C     -0.721839784345     3.797789318463     4.909552367750
H     -0.713015762367     4.871760110259     5.193908792280
H     -1.697569926949     3.575911338104     4.420720774135
H     -0.621608675555     3.190151164118     5.837323800826
Pd    -0.022904956610     0.049045596874    -0.391428850146
C     -0.836297671692    -2.339690896741     1.063846448266
O      0.236093523229    -1.809984271418     0.414132174861
O     -0.817887244510    -3.446474349731     1.619920029736
C     -2.078990440841    -1.407376300159     1.004752415626
H     -2.636672548105    -1.601764125074     1.929406621263
C     -2.968866275547    -1.749257083857    -0.171379597582
H     -3.861693376405    -1.090751795004    -0.166839911111
H     -2.414627403453    -1.591522606690    -1.119100818131
H     -3.298649964018    -2.807783826928    -0.108834267393
N     -1.640556643222    -0.006484120164     0.839408554502
C     -2.059359859633     1.051807639343     1.551232056893
O     -1.601730859378     2.234419979484     1.404438489290
C     -3.132270787549     0.869504506522     2.557734993973
H     -4.013639460893     0.427442752940     2.065758234877
H     -2.734022399943     0.235477834447     3.368738426374
H     -3.396030905185     1.857881611827     2.976315171045
N      1.685193939841    -0.295743041816    -1.583729345280
C      1.777265461828     0.251967944901    -2.836210217879
C      2.946751258406     0.141477753025    -3.560494292115
C      4.031392757062    -0.527095255433    -3.040554136884
C      3.903886834056    -1.106544671916    -1.807029669810
C      2.683789777944    -0.994283958759    -1.107321111027
H      0.929168074731     0.764812762263    -3.265414494197
H      3.007316513515     0.590745377354    -4.538019435095
H      4.956983723197    -0.611763675655    -3.603790886001
H      4.696420648138    -1.673448185474    -1.360086159110
O      2.658080234672    -1.646293500545     0.035659022402
H      1.697481139650    -1.827901233145     0.389479231018

