# STO-3G

title

0 1
C      1.160692085577     2.960167501386    -1.042697049514
C      1.722809305630     3.312461384130    -2.281683135501
C      0.931593210726     3.255825883790    -3.451164482642
C     -0.415240131199     2.839548135963    -3.386729867298
C     -0.977920897708     2.492138373996    -2.142545573044
C     -0.196031117375     2.553478214121    -0.958109269769
H      1.741690045288     2.992727094561    -0.126181080648
H      2.759208158019     3.638307526041    -2.341701761477
H      1.362561004205     3.546545390570    -4.407507118131
H     -1.019800979045     2.809125641972    -4.289957505257
H     -2.026151037066     2.211745519650    -2.070934353085
H     -0.683585996461     2.518842009305     0.038369282293
C      2.264422323777     2.103679113378     2.250362371092
H      2.496374442095     3.072589638162     2.684545264194
H      2.880174937252     1.771894382935     1.419552401817
C      1.249575059509     1.320949493354     2.682249269843
H      1.052098049588     0.377964893059     2.187887447828
C      0.339852529733     1.665515360389     3.785552169830
O     -0.510645812228     0.811270699480     4.161111310059
O      0.527347498709     2.865901973709     4.498529718413
C     -0.450024642462     3.150100909068     5.508249021563
H     -0.209372332033     4.122392387832     5.988722931481
H     -1.466363479535     3.226009446531     5.059049508234
H     -0.447684974654     2.361777147161     6.294617995734
Pd    -0.041035346247     0.243944228510    -0.405261528892
C     -1.054796154226    -2.272456814652     0.510121318241
O      0.080879530008    -1.719982320519     0.022810073809
O     -1.152562139650    -3.483698397629     0.788065270294
C     -2.241676436000    -1.273670229596     0.656598448185
H     -2.785991688078    -1.583312740367     1.558460042324
C     -3.179563492174    -1.367730664248    -0.529704360897
H     -4.032180716107    -0.672481166684    -0.391396589219
H     -2.636063261356    -1.085547794379    -1.454620205947
H     -3.567536174175    -2.403197111449    -0.630888587442
N     -1.721840257327     0.108143021351     0.707650807739
C     -2.131712414211     1.093362336382     1.525315051473
O     -1.606782457444     2.255783389194     1.563782646726
C     -3.273547593135     0.839707174665     2.438263053263
H     -4.143060355574     0.516327975053     1.844692185437
H     -2.958103406916     0.082068861258     3.175943327027
H     -3.512653149327     1.777332419064     2.972465013739
N      1.695235806421    -0.037287594489    -1.525765960951
C      1.616173645255    -0.093427099712    -2.890359463467
C      2.699435135249    -0.536025000625    -3.625790744927
C      3.862230190998    -0.920567565244    -2.993694292233
C      3.915580983428    -0.847310778317    -1.623990362086
C      2.770893520316    -0.392545314036    -0.923012748062
H      0.700995962177     0.197129118518    -3.390983390667
H      2.626815980658    -0.581482719411    -4.699782899745
H      4.717883511619    -1.266313605239    -3.567839435452
H      4.803177735757    -1.113929238954    -1.089892438987
O      2.837773647483    -0.272548601877     0.415223775225
H      3.486365046747    -0.835950196017     0.872988312431

