# STO-3G

title

0 1
C     -0.791532124152     2.892918642392     0.526496337271
C     -1.011070443635     3.928194596438    -0.423915028776
C     -2.242893129358     4.038399867395    -1.077301404272
C     -3.286686761630     3.113184870972    -0.806137317814
C     -3.096662717600     2.099449093180     0.138493187208
C     -1.851849336755     1.989266836104     0.823503689809
H      0.106686698860     2.830879226741     1.135690843680
H     -0.218357438594     4.643079703260    -0.630018655833
H     -2.408168643111     4.842501187412    -1.791317785181
H     -4.242519662265     3.216221720378    -1.314564535963
H     -3.906362818866     1.417688589846     0.385775282697
H     -1.755614325084     1.329744275678     1.679541076355
C      2.974025268537     0.659961895821    -0.336787270597
H      2.802689554445    -0.276449434467     0.183781720831
H      2.854119796821     0.612616382192    -1.416105598952
C      3.318560528705     1.801821482355     0.310006100752
H      3.454266680776     2.725950330661    -0.240034596140
C      3.547956422198     1.897893287699     1.761496519633
O      3.662940744055     0.845789732604     2.451054558349
O      3.791552939677     3.165300416808     2.318071511080
C      3.889440523237     3.205824391722     3.748116350672
H      4.061320784314     4.253437057435     4.075722114723
H      2.944036247495     2.845804805012     4.215568217694
H      4.741662212548     2.584413570196     4.105373034979
Pd    -0.277814268597     0.590398324579    -0.396312811608
C      0.442382386107    -2.180098733099    -0.467951777166
O      0.394533647721    -1.090115007573    -1.277516068774
O      0.768415533634    -3.307890010508    -0.881573924274
C      0.021431381228    -1.906559743936     1.009303256311
H      0.681883351121    -2.521371029107     1.635495419753
C     -1.410422322688    -2.335257875870     1.254794489673
H     -1.677755116805    -2.161484500165     2.316962018093
H     -2.092422682952    -1.739679969903     0.613965933127
H     -1.533323174772    -3.414041585917     1.021693139033
N      0.110389369506    -0.461645195006     1.280320672204
C      0.601892543037     0.143716751333     2.377553878512
O      0.692076914767     1.406589283725     2.507216742422
C      1.050165150212    -0.698263978179     3.513166086587
H      0.217515346181    -1.344347927027     3.833658295752
H      1.932088890338    -1.274257554743     3.185304235036
H      1.353196084979    -0.034659975062     4.343968756046
N     -0.474929421468     1.394345029866    -2.298741382981
C     -1.498023186425     0.935391731250    -3.082653207415
C     -1.624878698815     1.388801894892    -4.381648214522
C     -0.717594303548     2.290179835388    -4.898119702181
C      0.306541743587     2.716684667975    -4.091683630202
C      0.392755065587     2.222492948699    -2.776037141100
H     -2.214783403207     0.231028854226    -2.676916824286
H     -2.435398486346     1.027869483279    -4.992869649370
H     -0.808660382437     2.648517724063    -5.920010460404
H      1.052033887124     3.407110763941    -4.431217806396
O      1.432266991879     2.681360154865    -2.078439131187
H      1.530899588752     2.239924387574    -1.195998024618

