# STO-3G

title

0 1
C      0.133962585889     2.824990906112    -0.761321594923
C      1.184833740632     3.285952807154    -1.602152194570
C      1.057774190758     3.220831813720    -2.993430559332
C     -0.119289227457     2.687298565588    -3.583958520868
C     -1.171949620839     2.247033487901    -2.775120874777
C     -1.059728205309     2.324021990102    -1.356415741467
H      0.144750124639     2.954579808306     0.318139478736
H      2.083194964322     3.704735207089    -1.155246231303
H      1.859844467491     3.589852113834    -3.629201142984
H     -0.208628697926     2.651605634078    -4.667218929944
H     -2.094010938755     1.882708665575    -3.220713388390
H     -1.929645934747     2.155928099995    -0.730559237802
C      1.601167229298     0.118595090400     2.317169722644
H      0.645250075593    -0.285945746774     2.631168876420
H      2.185322676131    -0.533430464559     1.671717612346
C      2.040338057888     1.341879249261     2.704451236221
H      2.992926688919     1.721060690650     2.350553459027
C      1.317856556816     2.229864218551     3.629558441176
O      1.805926204541     3.365570357147     3.873596224631
O      0.236501681990     1.724545889871     4.379608866988
C     -0.406488372938     2.666207160255     5.249504816246
H     -1.241177599653     2.165626886683     5.784088398936
H      0.308457264508     3.055799695137     6.009523944828
H     -0.824705946483     3.516978046196     4.664008953549
Pd    -0.028805353377     0.324460851703    -0.433726088329
C     -0.936609955400    -2.199954927431     0.566919408077
O      0.142821547211    -1.645068352193    -0.043924481158
O     -1.018917343503    -3.417712712691     0.809500808946
C     -2.073574824883    -1.186946608764     0.909167799448
H     -2.494409688753    -1.508606774893     1.871217508688
C     -3.171513828357    -1.225115876532    -0.133280232637
H     -3.979218588775    -0.518337181765     0.146289356993
H     -2.760583150543    -0.924304349593    -1.118832209951
H     -3.594730777989    -2.249115429153    -0.207437166841
N     -1.514474877086     0.174629764061     0.922490354888
C     -1.732594531378     1.155863816691     1.816246777284
O     -1.146963235138     2.283860721374     1.786008933986
C     -2.721287243030     0.921293469507     2.896591244632
H     -3.687264823959     0.646943950577     2.442379062712
H     -2.327222570408     0.132039450019     3.558113967370
H     -2.835525771583     1.855333418185     3.476335529683
N      1.588051430719     0.107747240242    -1.716057733550
C      1.374230597607    -0.556862976975    -2.892798470502
C      2.433629342868    -0.806292744467    -3.743790095349
C      3.708799518650    -0.402329923876    -3.407733843141
C      3.891777380170     0.246344284765    -2.213397193116
C      2.779511259405     0.474933305796    -1.380724925960
H      0.372309670221    -0.871252496124    -3.160685483898
H      2.258622857051    -1.326041467116    -4.671161474169
H      4.547912002753    -0.598439135953    -4.069848749113
H      4.856067154603     0.578245016876    -1.884923220611
O      3.064353546580     1.093593663644    -0.235627367880
H      2.287726565196     1.166501938456     0.376209843719

