# STO-3G

title

0 1
C      0.616357624279     3.114818779437    -1.799807669813
C      1.195378840267     3.427957888951    -3.040485422905
C      0.655025586235     2.870889745390    -4.222910382697
C     -0.449359197387     1.993696798271    -4.165369223017
C     -1.029538320572     1.684182361075    -2.920049278030
C     -0.503485335341     2.244716697448    -1.726325321678
H      0.994444025734     3.550430075986    -0.879263285615
H      2.040951566048     4.109658262465    -3.096278817179
H      1.088247806719     3.130871184913    -5.186681309013
H     -0.863189974019     1.579790056838    -5.081531651374
H     -1.913622164278     1.052696256378    -2.867589737213
H     -1.145875105230     2.328904801540    -0.818668444194
C      1.793488849716     2.701511657135     1.895213691898
H      2.704680307176     2.367493787838     2.384765182861
H      1.930273799888     3.261977883428     0.973811030287
C      0.555338540323     2.397897246378     2.349325975848
H     -0.322249568767     2.707418079325     1.799909661308
C      0.289958296545     1.612508290761     3.568018909970
O      1.232312539288     1.333014967553     4.357307455572
O     -1.028363029895     1.189643143058     3.828743721760
C     -1.194578097402     0.361142271505     4.989023442202
H     -2.262895759415     0.078366182070     5.096425851636
H     -0.595159936519    -0.574408238218     4.896478150609
H     -0.883791525257     0.904085382818     5.910547427641
Pd     0.094184493902     0.469955108615    -0.235934019627
C     -0.525769132870    -1.484347983446     1.822000306686
O      0.538446040224    -0.849220942609     1.257316458707
O     -0.422790548053    -2.305027841154     2.744358593950
C     -1.875774281276    -1.055704554110     1.174063841757
H     -2.633024862872    -1.159396777256     1.960663438094
C     -2.253575008285    -1.961915683413     0.022832100289
H     -3.227655596767    -1.639301317147    -0.399229395131
H     -1.482491365084    -1.901536581965    -0.772091954493
H     -2.339211856889    -3.011999668692     0.373448425472
N     -1.732774178721     0.310709968340     0.637478412750
C     -2.492785955585     1.376686798922     0.934117276596
O     -2.213045371955     2.566832148333     0.566961710030
C     -3.750342851789     1.179522870749     1.692556633922
H     -4.370118169447     0.437819425523     1.162394513985
H     -3.490689893264     0.859330111198     2.714922184538
H     -4.286973037844     2.145134839160     1.743830438854
N      2.076434269367     0.305143492508    -0.927227860959
C      2.351448482256     0.441107487272    -2.262091442827
C      3.657838929396     0.479941777079    -2.704805242809
C      4.701474996726     0.370064572377    -1.814589034940
C      4.405875580533     0.185847813243    -0.491241882013
C      3.057499929623     0.127033866302    -0.078932719393
H      1.543674396346     0.504771322353    -2.975089549325
H      3.856406290278     0.601001263663    -3.756882067281
H      5.732579288790     0.404572263082    -2.156239017865
H      5.169071326174     0.053904712378     0.250136728056
O      2.901739156825    -0.123511776783     1.200610924255
H      1.953544305040    -0.431756218577     1.463839659047

