# STO-3G

title

0 1
C      0.773344384105     3.142107609684    -1.720511404245
C      1.394065277357     3.442009374442    -2.944394212781
C      0.789068723262     3.027343402988    -4.153563294571
C     -0.423609236727     2.304711762900    -4.140450326272
C     -1.044713687085     2.008564808573    -2.911869944767
C     -0.453173945834     2.427402796518    -1.691043134493
H      1.204453351192     3.468293214049    -0.778335468796
H      2.323663753559     4.006068578997    -2.965988807144
H      1.257305061047     3.278652988285    -5.103152289668
H     -0.885702552944     2.000765655631    -5.076400444167
H     -2.005677132701     1.499377424385    -2.890108091075
H     -1.089430326049     2.551450612366    -0.780688239223
C      1.830325742590     2.422711011519     1.938822390640
H      2.645490009176     1.848093959740     2.369690495640
H      2.091947918880     3.047119739434     1.087708027825
C      0.550883968787     2.339281848518     2.370635597740
H     -0.237808264269     2.886546097752     1.872714759116
C      0.112570549638     1.486893036188     3.488930732600
O     -1.120600094430     1.397188168068     3.740751813395
O      1.063208217613     0.761553083724     4.230051810365
C      0.539822808683    -0.135359214337     5.219161378617
H      1.381745043178    -0.651995796825     5.727691165175
H     -0.046495613612     0.418145808049     5.986605872831
H     -0.103232561672    -0.912693642028     4.747806217524
Pd    -0.093381165721     0.532993333936    -0.271193473678
C     -0.919886082262    -1.411351226296     1.725460491800
O      0.202872099571    -0.886355991357     1.161458310293
O     -0.894284615702    -2.296764500521     2.591919978111
C     -2.220366024426    -0.777410779381     1.149468014192
H     -2.947209580139    -0.792483815941     1.970991582759
C     -2.774399077575    -1.596272634309     0.003660535637
H     -3.713628565545    -1.133668450302    -0.363327837970
H     -2.040928197402    -1.622446819222    -0.827797191709
H     -2.987547827480    -2.632659170702     0.340487263465
N     -1.914177146128     0.569518183743     0.628504408486
C     -2.547838835995     1.711415793108     0.944151658164
O     -2.144676568296     2.866234781539     0.577052903494
C     -3.811503955258     1.650596774418     1.716196520867
H     -4.516358608381     0.984763839517     1.192485789979
H     -3.576317342912     1.298693974260     2.735293330978
H     -4.236374626556     2.669328933540     1.779876557817
N      1.849621744538     0.149262453451    -0.993698015973
C      2.128363846406     0.298416717228    -2.326447065524
C      3.426178068821     0.192689576680    -2.783551269962
C      4.455403187026    -0.076563085534    -1.910766339993
C      4.149966666175    -0.271611967391    -0.591081940365
C      2.807689927796    -0.179841885700    -0.164955879755
H      1.328917925018     0.487216421815    -3.026743200105
H      3.629524261195     0.327008454229    -3.833117359891
H      5.480110953214    -0.156224097078    -2.263896066587
H      4.897070110038    -0.524192010477     0.134973393608
O      2.631658816314    -0.457203112841     1.107335887407
H      1.650966494778    -0.659041261107     1.364263722956

