# STO-3G

title

0 1
C     -0.648700573943     3.590954235673    -0.431388721460
C     -0.075358981609     4.885160304397    -0.312901221860
C     -0.219902478110     5.840926765048    -1.331966585475
C     -0.939923859717     5.525393629588    -2.502947433142
C     -1.513284237163     4.244317475180    -2.638137053225
C     -1.370947703643     3.288929844481    -1.618159577869
H     -3.597712640489    -2.084886888870     1.724423452747
H      0.476188815391     5.138716682827     0.591973727591
H      0.218117082781     6.830238548755    -1.214071344536
H     -1.055038889873     6.265431384032    -3.291945757766
H     -2.073303613073     3.993949801760    -3.537048948027
H     -1.799048213324     2.296358791996    -1.727315833049
C     -0.517193425958     2.592098500093     0.656461699485
H     -0.176701663162     2.994601450940     1.608463337303
H     -1.363124908946     1.928264366144     0.811596667389
C      2.384649363724     2.012851928951     0.698283392849
H      2.948618785885     2.784736703591     0.174942563261
C      3.069081037859     1.451652930837     1.873922789312
O      2.372267375888     0.931575526418     2.779225015206
O      4.464678838457     1.556607483201     1.975362590208
C      5.052150033283     0.941334796423     3.130954777602
H      6.154674346486     1.078663701479     3.102520212897
H      4.668246204111     1.406577628069     4.067483888355
H      4.839121529934    -0.152331640289     3.148751274862
Pd     0.900692938201     1.149417147091    -0.054006606864
C     -1.410648215078    -0.684844600768     0.042744649208
O     -0.726722090453    -1.310037705930     0.946915676406
O     -0.919944161150     0.168620896329    -0.788964415066
C     -2.922350177339    -1.040441705272     0.019531756923
H     -3.010836774777    -2.033391631530    -0.441066296868
C     -3.779740497415    -0.067423937798    -0.763935036103
H     -4.840693624696    -0.387688805403    -0.712137324096
H     -3.694481543368     0.950622094244    -0.332985882405
H     -3.458334523928    -0.043053805430    -1.825199618631
N     -3.429645547866    -1.146056124496     1.389402252027
C     -3.270065758557    -0.148663739265     2.301602200906
O     -2.815119246423     0.988884430219     2.041311119829
C     -3.687614689466    -0.472797845491     3.681085384757
H     -3.065957041668    -1.314196818694     4.031158925522
H     -3.528595674323     0.416327312488     4.315033026707
H     -4.754730900179    -0.752822033085     3.659741727846
N      2.089156007169    -0.381326769615    -0.951249115673
C      2.782462485007    -0.092008241433    -2.094583530582
C      3.700488546030    -0.993279429519    -2.591577339258
C      3.919369235255    -2.193865244762    -1.951965058727
C      3.196181130486    -2.470567647529    -0.822007508587
C      2.253722002511    -1.531571099832    -0.346506339499
H      2.623279506461     0.855391666123    -2.596487257440
H      4.249410974563    -0.753388367344    -3.487504660223
H      4.642260719624    -2.907364006188    -2.338619225861
H      3.306133550747    -3.392131115993    -0.285749133689
O      1.597912121331    -1.905038502214     0.718071060399
H      0.577059570201    -1.504888414567     0.894468355711

