# STO-3G

title

0 1
C      0.951449373798     3.548582268972    -0.947333762174
C      2.365567975082     3.596591404773    -0.781059780136
C      3.211846959139     3.547444128890    -1.918036502380
C      2.652539512783     3.466075563831    -3.202020108173
C      1.245093787210     3.402753732926    -3.373180464105
C      0.401989274516     3.446547474548    -2.258186524502
H     -1.773791653265    -0.217780374186     2.195988013614
H      2.784852816006     3.784561619785     0.202368895879
H      4.289385198721     3.608427485189    -1.790533399484
H      3.299215268095     3.460697862089    -4.076771910116
H      0.822509368732     3.332162578086    -4.372463999670
H     -0.678012347921     3.414986376459    -2.377772292239
C      1.026438413445     2.264491186075     1.800335227665
H      0.310325408207     3.804114987484    -0.111475439971
H      1.967116951836     2.251968958167     2.356834498808
C     -0.127956402553     2.657492524658     2.384212026818
H     -0.121051778600     2.998157443107     3.413513314226
C     -1.459964150166     2.640456963742     1.758544636640
O     -2.380658951522     3.296812422331     2.313145104656
O     -1.563845501852     2.249201126628     0.409045252656
C     -2.893150723889     2.080147276331    -0.114914561767
H     -2.985824799352     1.068797318053    -0.567213773291
H     -3.696048617295     2.164767027407     0.654219016036
H     -3.080111722763     2.834176862688    -0.908256854419
Pd     1.213804416377     1.413357745236    -0.001220639602
C      0.415140454479    -0.823181062303     1.628564305560
O     -0.726886659878    -0.522829591014     1.066934467406
O      1.529353947119    -0.336494066870     1.200810975450
C      0.426093964614    -1.669715272375     2.925773695329
H      1.478339478243    -1.842350775081     3.170377680590
C     -0.259395204831    -3.009787302080     2.742344248685
H     -0.168106358145    -3.602209258230     3.676351079344
H     -1.336325141285    -2.846391467778     2.528046232451
H      0.205346310392    -3.571248783752     1.906197566305
N     -0.187306587105    -1.008661284541     4.089175869016
C     -1.279357888751    -0.329395424737     4.117564892853
O     -2.125728155749     0.032296214226     3.110147126709
C     -1.692996901328     0.146497641196     5.441248970551
H     -1.841363293282    -0.738521415800     6.081852141834
H     -0.879404696414     0.775760096264     5.836914321454
H     -2.628860047522     0.727695792420     5.352935613878
N      1.213823667725     0.256080673605    -1.836254598774
C      2.292393531769     0.236485563064    -2.678402432135
C      2.189012731680    -0.351312328287    -3.923226479365
C      1.005193253883    -0.929286321231    -4.326432491227
C     -0.051376795265    -0.920228735777    -3.454786603674
C      0.101059741468    -0.321497822134    -2.185404267971
H      3.226081930326     0.689985188079    -2.369128729151
H      3.041504842697    -0.353250914716    -4.581996756693
H      0.915509904269    -1.391343562396    -5.305981756119
H     -0.993904136792    -1.369993086121    -3.695639960220
O     -0.971920849544    -0.409285504398    -1.418892694567
H     -0.844445220126    -0.301984453370    -0.386316675590

