# STO-3G

title

0 1
C      3.109028282104    -2.006980491247    -0.644345356852
C      3.071407914547    -3.406129486991    -0.477481522690
C      4.204021371590    -4.093777287432     0.001625079494
C      5.379470816609    -3.381690871280     0.313927701656
C      5.421519516529    -1.983431089741     0.141712634532
C      4.287594289222    -1.297407719364    -0.336468671486
H      2.224007441708    -1.476511954764    -0.991259312911
H      2.163317453997    -3.955813646507    -0.718131373987
H      4.172998919751    -5.174170665136     0.127210232578
H      6.255611874782    -3.911712242656     0.681556506062
H      6.331355042522    -1.434337072266     0.375098000138
H      4.324441063679    -0.218433491721    -0.470580647105
C      1.305818021583     1.148847346651    -0.995635268492
H      0.520404943799     1.696264002052    -1.506650512468
H      2.043797568886     0.689119076333    -1.646183502983
C      1.622197242371     1.419290029039     0.360254135007
H      2.590782370682     1.162028245989     0.762687918896
C      0.809646899619     2.304471807291     1.208171622152
O     -0.430036404458     2.306877274246     0.981234483997
O      1.303741796142     2.608313911812     2.486211522990
C      0.404905709664     3.325373289813     3.344176093523
H      0.906826394336     3.531665796333     4.313524686433
H      0.115805718514     4.299637013190     2.887581490646
H     -0.511740428624     2.726183928396     3.551247185666
Pd     0.406253593402    -0.400004417658     0.295223221288
C      1.486639421522     5.586103795066    -0.729950472452
O      1.657311571998     4.419029002945    -0.546290811449
O      1.320245389526     6.753691732896    -0.912138231496
C     -1.616890941992    -2.859024682290    -0.636365921492
H     -0.995208750802    -3.747794988292    -0.708061362730
C     -3.097126092478    -2.964149791628    -0.879157633916
H     -3.651685169611    -2.542733381422    -0.014938029160
H     -3.357619294867    -2.410842503496    -1.801664167633
H     -3.378234986409    -4.029427003702    -0.999353082187
N     -1.151742734241    -1.688894334595    -0.381517383343
C     -1.773228495269    -0.431905639876    -0.173858587002
O     -2.412190737639    -0.152782378360     0.906023988050
C     -2.039280104193     0.362123830623    -1.381534010192
H     -1.434195790245    -0.015207034868    -2.224207003875
H     -3.114813370808     0.259902963107    -1.607413962053
H     -1.820914466245     1.422820837140    -1.158831846667
N      0.688016935829    -0.997331908889     2.454908741464
C      1.864846384251    -1.605930041432     2.806120762105
C      2.242670398315    -1.676184541338     4.130833842177
C      1.439649233368    -1.145692212122     5.115836527082
C      0.259652073406    -0.560253878471     4.743071814372
C     -0.090727611436    -0.511209830853     3.375951155289
H      2.506789005156    -2.024562207001     2.043608260057
H      3.175386405653    -2.148902767557     4.392415666832
H      1.731972718084    -1.195314273705     6.161405350537
H     -0.416150681353    -0.134664034801     5.457951887137
O     -1.254818257724     0.078881379078     3.159362971442
H     -1.669149515824     0.020268996992     2.216371806899

