# STO-3G

title

0 1
C      2.843357563967    -1.286887671919    -0.610700087634
C      2.785353138703    -2.631811326613    -0.191511510627
C      3.961493062517    -3.311975998300     0.181323223662
C      5.203189428378    -2.646908408626     0.136159485895
C      5.265300621839    -1.303396724260    -0.285240885245
C      4.087423152809    -0.625857998577    -0.658515544471
H      1.931081722473    -0.754784004745    -0.874560342882
H      1.826786877281    -3.145411882041    -0.142843016904
H      3.911580205336    -4.350371874870     0.502955039947
H      6.112569394793    -3.170990565177     0.422599016008
H      6.223997788815    -0.790299482507    -0.323900258753
H      4.136515790436     0.411020298627    -0.983883085211
C      0.834713372124     2.051277761201    -0.252194890092
H     -0.024737940078     2.713276294280    -0.320828352430
H      1.332772155167     1.823814726150    -1.186154573060
C      1.502825683287     1.860039622878     0.987008019669
H      2.506691717916     1.460076053984     0.992264614566
C      1.063483488635     2.453531512889     2.260250899164
O     -0.142296224793     2.795036020786     2.373354208024
O      1.888774235495     2.295711042989     3.384162376877
C      1.291917545094     2.609781935391     4.650598464300
H      2.037997402065     2.451512351739     5.459068486944
H      0.962663228331     3.673278746999     4.683353155064
H      0.420521787937     1.945081318665     4.852910461093
Pd     0.170344090830     0.164518458667     0.644778670174
C      2.253793926901     0.892975307174    -4.310673206137
O      1.919762676877     0.877521772015    -3.164711812758
O      2.585878963714     0.909547369441    -5.455374843796
C     -1.345850624526    -2.232567083902    -0.869375685211
H     -0.535239085998    -2.952466611393    -0.943342923291
C     -2.666271223044    -2.539347395744    -1.515174535768
H     -3.466084511328    -2.523592014011    -0.746582416571
H     -2.877139978476    -1.785030951898    -2.297559010076
H     -2.627145355843    -3.543973587602    -1.981913864556
N     -1.208279553253    -1.076487836453    -0.324069162816
C     -2.054655172829     0.001315332380    -0.047944386321
O     -2.752590023466     0.070671994873     1.022038682457
C     -2.316216895638     0.939629670772    -1.147395302474
H     -1.597926876864     0.763000241422    -1.970180329756
H     -3.347163024045     0.755246575365    -1.495720505092
H     -2.242068801769     1.970303524627    -0.760602251532
N      0.531287442728    -0.832526505151     2.593010995574
C      1.820087345060    -1.135206392974     2.948638261898
C      2.106788671086    -1.540395087618     4.235418393636
C      1.104786206495    -1.652554844076     5.172773238221
C     -0.174508155228    -1.345888138640     4.792826606372
C     -0.427745974570    -0.935135107333     3.465380849514
H      2.618618821804    -1.041166734580     2.223624847310
H      3.125046661699    -1.771947674403     4.502933573255
H      1.323522177671    -1.974902406385     6.187360784538
H     -1.001980249868    -1.414948031318     5.471263381669
O     -1.703550045421    -0.669704580715     3.244747880621
H     -2.044419566874    -0.364664743863     2.321890828590

