# STO-3G

title

0 1
C     -0.581697315245     3.051334582674    -1.683919171131
C      0.423306215844     3.604548828085    -2.525223490275
C      0.554712331725     3.165295604724    -3.846038086851
C     -0.265882119565     2.114150827144    -4.344728321421
C     -1.249738082808     1.547557477520    -3.532974980357
C     -1.437923551788     2.027682742575    -2.200270940078
H     -0.804346135084     3.456554304271    -0.698323295589
H      1.049564132425     4.408193217222    -2.146067286605
H      1.283351415598     3.632737705966    -4.505098525178
H     -0.145289797845     1.775797509078    -5.371030717351
H     -1.907786069165     0.773685757130    -3.920277785311
H     -2.341098928921     1.764612900947    -1.657175861040
C      1.869388038339     2.366184725862     1.478362330748
H      2.665749162048     1.635802818395     1.607962331501
H      1.927543706224     2.983770394456     0.585701226781
C      0.828968293649     2.485385783601     2.334752032776
H      0.028917202429     3.177050675048     2.118939153235
C      0.637939926930     1.663723076410     3.539694609884
O     -0.435602214105     1.783240174432     4.190080589904
O      1.644478014320     0.766679497074     3.945098919082
C      1.329607460435    -0.052193268846     5.080157535197
H      2.185533445467    -0.725741421304     5.297355791118
H      1.139240252117     0.574679050883     5.980272872203
H      0.435721659971    -0.685350220345     4.875613956338
Pd    -0.097669687632     0.905682583449    -0.626720652286
C     -1.687652235520    -1.332491344891     2.056070554779
O     -0.372270386628    -1.204362341364     2.371102934557
O     -2.473633318265    -1.946590015294     2.794888114439
C     -2.216551074089    -0.634844424140     0.751880843184
H     -3.309414184296    -0.664097900914     0.860069749304
C     -1.889399063140    -1.423992048884    -0.499223245924
H     -2.300225555239    -0.904754218525    -1.389854348666
H     -0.796359914353    -1.542006237786    -0.618913787166
H     -2.345782135758    -2.434448093078    -0.437254143830
N     -1.731470023718     0.742336383815     0.554508438201
C     -2.233858234659     1.843240665573     1.161609158219
O     -1.831216074246     3.022162227980     0.926344215763
C     -3.295970505967     1.680230842824     2.184969944885
H     -4.200898760941     1.267260717229     1.712797489247
H     -2.910109408187     1.035938298813     2.994791931555
H     -3.529564511610     2.673777594639     2.610928486503
N      1.835095296660     0.531502413002    -1.409163712529
C      2.778031471102     0.837061520453    -2.348145136424
C      4.041613950840     0.279088582168    -2.253811891542
C      4.359993536929    -0.586812737806    -1.223146578959
C      3.394899930978    -0.884514254290    -0.293979960384
C      2.124877584023    -0.293931574245    -0.431511608781
H      2.543455227779     1.508340737191    -3.161567986642
H      4.783486847479     0.524704271485    -2.995937738853
H      5.353375291935    -1.021580491719    -1.150170487540
H      3.568868370634    -1.540537138550     0.534826974708
O      1.184813184156    -0.536882706022     0.440386795287
H      0.258827480128    -0.875621502207     1.665971869937

