# STO-3G

title

0 1
C     -0.293406711342     4.103395839158     0.592227259773
C      0.747347209785     4.751363203728    -0.105336286580
C      0.877963277985     6.151385986360    -0.058941865939
C     -0.038157708681     6.922968727895     0.681310110602
C     -1.085976249978     6.284028460570     1.372528117294
C     -1.215450616442     4.883732300793     1.324927265711
H     -2.355821814026    -1.930279431231    -0.802095635321
H      1.460881713865     4.159479439887    -0.679295598252
H      1.689611310569     6.634445706447    -0.597827481979
H      0.061022792923     8.005176511635     0.716075225524
H     -1.800220124621     6.873149731696     1.943014708033
H     -2.029081566636     4.396231138338     1.857987557827
C     -0.460066476373     2.598888887156     0.595216464214
H     -1.494923173428     2.279609072258     0.736805873058
H     -0.301188078903     2.277418895442    -0.570281103352
C      0.429762717796     1.716732889600     1.417385857657
H     -0.065141472453     0.916440992721     1.950847709634
C      1.691189852442     2.177147687129     2.020029417271
O      2.563816666065     2.638619367720     1.237651745375
O      2.051158112227     1.662479116009     3.275845687054
C      3.369777297211     1.993372244243     3.733346106799
H      3.530879868830     1.551638774567     4.740316844150
H      4.142505066230     1.578266646086     3.046700505697
H      3.496651082902     3.096987567426     3.812164706291
Pd     0.918290838656     0.982686088645    -0.447923870851
C     -0.425711752112    -2.480698150514     0.954216027950
O      0.398845506582    -1.511993774113     1.424067489062
O     -0.068822371247    -3.450382557912     0.254372302470
C     -1.901088489727    -2.137809813112     1.262460081706
H     -1.952856274766    -1.455905132516     2.113523158379
C     -2.766912292840    -3.352289237502     1.505450344169
H     -3.810292545585    -3.028314645673     1.698688068629
H     -2.754721678912    -4.002937205910     0.606339287459
H     -2.390477852993    -3.920902194086     2.380149983623
N     -2.412132198008    -1.431340941066     0.078885686577
C     -2.722146233004    -0.112889674302     0.089195408879
O     -2.676074404631     0.636295698782     1.096326297974
C     -3.147741888498     0.445058232401    -1.211803022304
H     -4.042891500432    -0.113914461777    -1.535482934094
H     -3.394671405923     1.513108707792    -1.078033730064
H     -2.327370906868     0.313649531230    -1.937489371195
N      1.620070008311    -0.156893673344    -2.225513768311
C      1.668957200828    -0.337476261079    -3.579526598359
C      2.401371572938    -1.386222902698    -4.105580773090
C      3.084769026873    -2.257130912349    -3.277044250545
C      3.031737721008    -2.049461161297    -1.921926047748
C      2.276949710243    -0.965293440493    -1.433461871406
H      1.129037929577     0.335567544681    -4.235312201033
H      2.430749805556    -1.528808636686    -5.173450962788
H      3.653020835719    -3.086596835355    -3.689709879455
H      3.532451104118    -2.684958058080    -1.219802401814
O      2.217614351465    -0.754625389730    -0.132719242182
H      1.274122462921    -1.402297875571     0.897038942793

