# STO-3G

title

0 1
C     -0.366414979665     4.059794158925     0.599452910486
C     -1.357969201326     4.784631749163     1.297635471541
C     -1.276377161628     6.185380268518     1.402756561756
C     -0.207118668187     6.880051848273     0.804308968231
C      0.778741149485     6.163916900581     0.098706247120
C      0.695950710450     4.763279621058    -0.005436888041
H     -2.445941626489    -1.995966241166    -0.889271897870
H     -2.187889126334     4.253067142097     1.758546174605
H     -2.044102087833     6.731735118801     1.945708925518
H     -0.144760884272     7.962688748353     0.883516366342
H      1.607498777967     6.690487248775    -0.368646702773
H      1.463017289363     4.214286061642    -0.552430250835
C     -0.485749434857     2.551738780384     0.539951840107
H     -1.517724910756     2.200109327149     0.602839922789
H     -0.237882146579     2.277474608178    -0.620954524935
C      0.373440862426     1.668899066993     1.394005126336
H     -0.133574395269     0.842828107557     1.873929194130
C      1.577703136588     2.145680956573     2.093056952395
O      2.487231959737     2.652170048495     1.383973114980
O      1.867660576032     1.604635629976     3.355892340857
C      3.141280699360     1.960352041360     3.911675940839
H      3.247475335136     1.494082605943     4.914856409907
H      3.971361612790     1.588526825228     3.268564746169
H      3.227959948100     3.064416824645     4.029237934751
Pd     1.008256354706     1.010469893097    -0.455108494499
C     -0.383433813316    -2.417170013019     0.728965604543
O      0.479781919618    -1.583211844082     1.352291931112
O     -0.078210174836    -3.234984653321    -0.165014442543
C     -1.846658313911    -2.135551668988     1.138442544527
H     -1.870265140262    -1.445487721663     1.983209464693
C     -2.630026496382    -3.387203947742     1.460947268538
H     -3.671932613898    -3.111629894815     1.724581965503
H     -2.650148847996    -4.051732373926     0.572071129672
H     -2.164005733953    -3.920797804339     2.314302902284
N     -2.475742824120    -1.480311242806    -0.016345765144
C     -2.830668851339    -0.173709818795    -0.010637652738
O     -2.727802130068     0.602453764908     0.972509952775
C     -3.377802760051     0.337768947762    -1.284345426259
H     -4.274545835460    -0.259111255623    -1.524701726538
H     -3.649242414982     1.400136888775    -1.153822012531
H     -2.611608117255     0.218333671016    -2.069088873259
N      1.859077309263    -0.044636575365    -2.218315857665
C      1.996312493400    -0.179245405645    -3.571539487904
C      2.770682694952    -1.204669380095    -4.083590787533
C      3.406226221132    -2.098701056265    -3.241671644597
C      3.262819082745    -1.937790671689    -1.886622068217
C      2.467423757271    -0.876181263653    -1.413312889937
H      1.494946542877     0.512761384074    -4.238108748156
H      2.870377033188    -1.310755753757    -5.151426988038
H      4.007366469059    -2.909895317975    -3.643873341660
H      3.721853198617    -2.593649153938    -1.175141652535
O      2.317085785630    -0.711312051539    -0.112460007610
H      1.358761132164    -1.424085243507     0.837919648024

