# STO-3G

title

0 1
C     -0.335148418877     1.091764390072    -1.715450792108
C     -0.306901590710     0.308111097221    -2.889699513135
C     -0.792267008050     0.842082203873    -4.102849156538
C     -1.295629855214     2.156026972668    -4.150136095769
C     -1.315653724542     2.935695541678    -2.977373149834
C     -0.838782810542     2.407853334163    -1.759339435640
H     -0.605747143376    -1.512531356325    -0.206348533618
H      0.071427634005    -0.711926499938    -2.875107374821
H     -0.776981243429     0.231233368776    -5.003348717985
H     -1.666593733719     2.567055155638    -5.086206796425
H     -1.699994628454     3.953477136493    -3.004340386055
H     -0.863508097994     3.019113583279    -0.860493722361
C      1.711514441206    -1.241138949510     1.480992719011
H      2.692770902694    -0.778770447559     1.432670367393
H      1.529699462511    -2.083644850977     0.820513500986
C      0.773867270667    -0.871206522211     2.402010977995
H     -0.174755774765    -1.382759792510     2.438940302487
C      0.968133859251     0.163787019888     3.428656987779
O      0.012895441289     0.435196108676     4.205224459074
O      2.180394772658     0.873653729935     3.477451511116
C      2.195089269158     2.026505753385     4.329637540448
H      3.192836249967     2.511796096955     4.272700199930
H      1.433573189597     2.769160375270     3.997511163368
H      2.002493043933     1.741255380688     5.388497590245
Pd     0.355374742187     0.315699767734    -0.002153529971
C     -2.339487081639    -1.941911477579     0.683822983891
O     -1.137447553406    -2.301847386269     0.107194144467
O     -3.098268821685    -2.802131223694     1.140377437093
C     -2.700339437995    -0.424998202249     0.694848543974
H     -3.435045173792    -0.345137350743     1.507276016026
C     -3.387214622392    -0.024886290319    -0.596023142900
H     -3.623842524649     1.058609372417    -0.582493135387
H     -2.723057404331    -0.231480122754    -1.458182028517
H     -4.328532647523    -0.599552735244    -0.723284692403
N     -1.531684719084     0.445522556645     0.880281014907
C     -1.482624863930     1.546750043724     1.629052806171
O     -0.432892756549     2.297620299616     1.702140007421
C     -2.640141717449     1.955186426699     2.453244413507
H     -3.514196888065     2.100920520619     1.797586050244
H     -2.811709545598     1.171386554226     3.211584124254
H     -2.397786346713     2.903278908481     2.968487420510
N      2.245362209962     0.919923820969    -0.591339708959
C      3.037196995543     0.353471542046    -1.551826179915
C      4.264721663454     0.908473506893    -1.846410329519
C      4.697290242427     2.040253960254    -1.189652659679
C      3.876847491618     2.599919027102    -0.245537612170
C      2.624134427664     2.010846031575     0.027971233412
H      2.705818830607    -0.540765129737    -2.066528239269
H      4.886813609508     0.452842415401    -2.599380014432
H      5.663131423249     2.482289456961    -1.419676497563
H      4.148549062128     3.487031646897     0.290726336619
O      1.912748769517     2.651540908356     0.923815691420
H      0.914818589654     2.394332255951     1.186271695943

