# STO-3G

title

0 1
C     -0.394538901304     1.853711929486    -1.733097035612
C      0.443218165802     2.986554980501    -1.832041818868
C      0.054536447173     4.076870070794    -2.638921674744
C     -1.159852866963     4.037066105370    -3.349831052413
C     -1.992716873207     2.906159102111    -3.243481808521
C     -1.618411759972     1.814969167874    -2.431832472748
H      0.532811620035    -0.515111190073     1.781095976165
H      1.382387219524     3.034562643892    -1.283640949521
H      0.697793683775     4.952542147894    -2.703115625115
H     -1.457889992876     4.879235629037    -3.970100130231
H     -2.938823289616     2.873886317447    -3.780145928827
H     -2.282746627008     0.961488738480    -2.334968519637
C      2.126467084419     1.068774272134     2.145014453634
H      1.920799529894     2.033493636718     1.689812487384
H      2.813156057270     0.423313002137     1.603141360903
C      1.574987401812     0.680583522654     3.323893151072
H      1.809383791177    -0.292904643466     3.736150899235
C      0.664750623629     1.506465675432     4.133611110100
O      0.425693325362     2.696855024382     3.788062504190
O      0.154723618436     0.973880107068     5.329388602816
C     -0.859728987522     1.756522734896     5.973821399757
H     -1.200788699586     1.232795618409     6.892145182393
H     -0.465448847094     2.755665881691     6.266687802552
H     -1.740677796249     1.886071850728     5.303068513998
Pd     0.170979510867     0.320008244969    -0.607580409383
C     -0.726598327568    -1.978356480513     0.994182973094
O      0.561953975845    -1.329532675077     1.205716841801
O     -0.740167429488    -3.180616817202     0.785581936376
C     -1.879357088977    -0.961288875964     1.021155572756
H     -2.307163466146    -0.956507142907     2.039858291475
C     -2.967316924414    -1.323923094741     0.035921935170
H     -3.787220678505    -0.578445090435     0.100955209395
H     -2.560318382289    -1.320800826469    -0.994675160296
H     -3.377302145598    -2.329183275276     0.269139003226
N     -1.399402878450     0.395918730913     0.698210697406
C     -1.721725630757     1.356441536619     1.602352334019
O     -2.274145984508     1.146948940882     2.723578850596
C     -1.396411874050     2.736196109833     1.208214394168
H     -1.967879596324     2.980805177048     0.297588937357
H     -1.684913579938     3.410684051939     2.034450874727
H     -0.312216447580     2.811396228256     1.037671739225
N      1.895713669870    -0.115479583492    -1.764242962793
C      2.031627917910     0.348948262978    -3.050849929724
C      3.212202775501     0.159072641691    -3.739130734595
C      4.264220125873    -0.508150390746    -3.155558379216
C      4.096765679482    -0.990855467710    -1.886465698788
C      2.870660045487    -0.788268638220    -1.220660041283
H      1.214906777870     0.861394409783    -3.541966557027
H      3.305885326091     0.535688571500    -4.745096696394
H      5.196477035455    -0.660973378257    -3.693246453313
H      4.866761963167    -1.542823913829    -1.383526896902
O      2.835379877397    -1.344544927711    -0.016683245737
H      1.944161848482    -1.416135840277     0.453395524052

