# STO-3G

title

0 1
C     -0.219891506418     1.208132058374    -2.078157446658
C     -0.998406691579     2.353466318535    -2.341015621679
C     -1.518412762502     2.549255863089    -3.637641588665
C     -1.275084971841     1.606847213746    -4.656471577066
C     -0.504811728810     0.461426301557    -4.378698490035
C      0.030120467249     0.257111119986    -3.088266473945
H      0.111806070396    -0.122538083777     1.878933820331
H     -1.195011871275     3.075009976729    -1.551584308394
H     -2.117270252785     3.434171550927    -3.844011536899
H     -1.684700881855     1.760652024895    -5.652305379030
H     -0.319823565370    -0.276242773328    -5.157411427711
H      0.618445684071    -0.634880269143    -2.885022508094
C      1.711900231776     1.940355583888     2.092561447381
H      0.939809014638     2.703380694312     2.022710593395
H      2.486323754541     1.962649522611     1.328699728729
C      1.796238702315     1.023110944549     3.093909011866
H      2.597575038911     0.294745384926     3.096048437601
C      0.883538720214     0.950963772547     4.248216332426
O      1.154159107792     0.158691660936     5.189243407297
O     -0.262437568294     1.770056467186     4.292378994141
C     -1.050720935556     1.675677630729     5.487176539405
H     -1.911669864320     2.374317272798     5.418459152480
H     -1.444068043309     0.642258835934     5.620576934201
H     -0.448073654714     1.957957135337     6.380436158885
Pd     0.553566925082     1.048618306157    -0.254211478929
C     -1.054038347731    -1.456535866960     1.011142209451
O      0.148993112103    -1.087873882343     1.651310027992
O     -1.261373654316    -2.628164748426     0.710835775676
C     -2.017871256972    -0.253769273994     0.796204325336
H     -2.718747906863    -0.300816629410     1.649647553994
C     -2.821768861259    -0.403916353893    -0.477844959860
H     -3.444456801192     0.498191485880    -0.645195192527
H     -2.145755667370    -0.532342122243    -1.345146006553
H     -3.483218574861    -1.293074208453    -0.410110557704
N     -1.253763601096     1.000052875979     0.745216264194
C     -1.653339046986     2.208478069564     1.208974547635
O     -0.978385233537     3.264565893523     1.012201345759
C     -2.899550536431     2.313008104775     2.006209970089
H     -3.746507613456     1.970937803325     1.390045935937
H     -2.771603752275     1.704354575899     2.916310312591
H     -3.046934130469     3.371098965222     2.291185902105
N      2.465226236783     0.724826100753    -0.993498128553
C      3.009163940040     1.517939505406    -1.970392651662
C      4.293497439984     1.278872647074    -2.414042536671
C      5.036019513692     0.244951466624    -1.885756156686
C      4.463339234879    -0.535438228253    -0.915676399928
C      3.146632200187    -0.263308851066    -0.495330457701
H      2.434440039392     2.337835009938    -2.386190800145
H      4.715545252537     1.908368931913    -3.180826194334
H      6.048633082553     0.052375907012    -2.230713350173
H      4.984038960687    -1.358348163930    -0.465873884544
O      2.707761556461    -1.094308048624     0.444752953109
H      1.754316420730    -1.045225224833     0.739224028036

