# STO-3G

title

0 1
C      2.014747346965     0.534124560850     0.324349391427
C      2.713665185080     1.706264465321     0.682253811242
C      3.444659744743     2.416654014102    -0.292598041791
C      3.477778137438     1.967411375750    -1.627053147823
C      2.780808273587     0.797213875703    -1.983558388582
C      2.055735288918     0.075513943200    -1.011226243819
H     -0.598531959046    -0.591017365380     0.325232561504
H      2.696013359728     2.066774848188     1.708067263937
H      3.985603376196     3.316124965928    -0.005171520232
H      4.040498249649     2.519495031345    -2.376209683752
H      2.799759330123     0.442945126664    -3.012289943024
H      1.527035967111    -0.827489798799    -1.310544061379
C      0.152446442164    -1.780159925530     3.664773155196
H      0.967912831190    -2.493081266186     3.732728113955
H      0.172149349919    -0.960037708011     4.374711140041
C     -0.899887445237    -1.946976495686     2.804347535187
H     -1.730727590268    -1.259734217375     2.838812595633
C     -1.063370731959    -3.077110362592     1.874981838562
O     -0.048979311174    -3.728646643764     1.503361685009
O     -2.345875566675    -3.375338399615     1.388059578055
C     -2.408694334954    -4.348842064153     0.337643609934
H     -3.468064487478    -4.489351855162     0.032801474922
H     -1.838468524528    -4.000705980496    -0.553429012267
H     -2.008994497213    -5.329975570443     0.679814185167
Pd     0.975671300654    -0.499461676287     1.698657878852
C     -2.230942632704     0.538263681467     0.521671408186
O     -1.566176841548    -0.580953339401     0.069818250773
O     -3.448265895743     0.660586029148     0.352111333194
C     -1.375303858943     1.647419207368     1.199943310862
H     -2.114372350391     2.234121549116     1.761391862789
C     -0.750188706590     2.553896833441     0.156159875698
H     -0.113145639519     3.320595823620     0.641237079450
H     -0.121765624370     1.958645784768    -0.536060087869
H     -1.542538409958     3.062077985948    -0.432427579221
N     -0.301497230786     1.109762427363     2.050349334736
C      0.141367014562     1.652720298525     3.184961919151
O      1.162115952744     1.199650324006     3.835963922849
C     -0.557582235456     2.807856017187     3.791217230982
H     -0.543279070252     3.648218468511     3.077595117586
H     -1.586601142258     2.500165313666     4.042626338967
H     -0.029214067500     3.104743272871     4.716810978768
N      2.634293066284    -1.718148304676     1.897248802693
C      3.013522496968    -2.733740052893     1.063382715838
C      4.186528802663    -3.418714024314     1.307242752596
C      4.977146585091    -3.091936595813     2.387532095992
C      4.571278219131    -2.072019167140     3.209039742493
C      3.370921159413    -1.387277279437     2.925803887331
H      2.392080983897    -2.998071058609     0.215617116024
H      4.477528829694    -4.219209356835     0.647402195365
H      5.899872798799    -3.631213637694     2.584171251019
H      5.141920782736    -1.768865219425     4.063762944723
O      3.081237399756    -0.431424717529     3.779590513873
H      2.239034324076     0.203223421466     3.689281338079

