# STO-3G

title

0 1
C     -0.537064443987     1.274940060763    -1.545786802238
C     -1.217742511900     2.510941635307    -1.483330672676
C     -1.902134142796     2.989368097018    -2.619741833146
C     -1.923787638809     2.236212072048    -3.810465306263
C     -1.252459862773     0.999889331093    -3.864326181906
C     -0.553812689092     0.518483402662    -2.736354781017
H     -0.020020316902    -1.087497075694     1.473138487596
H     -1.216966672726     3.086376892987    -0.560723258397
H     -2.422748417370     3.943759976735    -2.568717914500
H     -2.459699569599     2.605034710982    -4.682225489530
H     -1.269426505158     0.406685258890    -4.776802233949
H     -0.043214120846    -0.440603943782    -2.799972769132
C      1.898053451877    -0.122674788235     2.135109306812
H      1.229797421413    -0.439404538230     2.932749889704
H      2.319425989114    -0.909215295750     1.514949182348
C      2.334833368319     1.166813676671     2.029975191556
H      3.059858895498     1.418834012776     1.269484591387
C      2.000955258628     2.250116201397     2.968826713113
O      2.565289127456     3.366767133162     2.815833092685
O      1.266986711761     1.956293932148     4.135441112508
C      0.959027389757     3.080121079904     4.971026675031
H      0.367907786584     2.737886043320     5.846611301435
H      1.890430748899     3.561838520592     5.346048075900
H      0.354151382698     3.829733265886     4.410837222375
Pd     0.495595070327     0.756429431411     0.081342755475
C     -1.587048216176    -1.845750983168     0.599738093840
O     -0.242837804181    -1.931467506919     0.997910562244
O     -2.130712257712    -2.783792224963     0.021889114244
C     -2.254501537513    -0.505105696064     1.013499495092
H     -2.800457341532    -0.749980195269     1.943674015915
C     -3.270522890903    -0.052199166355    -0.017074686455
H     -3.662477264142     0.952621979029     0.237328344239
H     -2.806863377240    -0.004583568303    -1.021184685708
H     -4.116753267867    -0.769703140146    -0.058319631903
N     -1.246055064506     0.550379609857     1.225042160832
C     -1.399929127758     1.629484814956     2.027623331237
O     -0.621621761784     2.628962132802     1.957778190963
C     -2.456467322650     1.634707518006     3.068941249526
H     -3.442937191832     1.571865851141     2.583093848126
H     -2.271808411607     0.783590579082     3.745480749315
H     -2.383396121675     2.579418912760     3.638696179808
N      2.177701798842     0.500975849234    -1.107052073773
C      2.791131853096     1.562964991564    -1.717761559232
C      3.871872256093     1.346312643675    -2.547969434485
C      4.334429159447     0.067879562774    -2.776374221969
C      3.687616671571    -0.975665510927    -2.165974358325
C      2.583147307334    -0.710457193745    -1.333639866895
H      2.435695056366     2.570801003342    -1.534832222129
H      4.354900586237     2.187081004540    -3.019313507939
H      5.185468508566    -0.108520454865    -3.429059142935
H      3.986680761603    -1.995062591202    -2.312299666612
O      2.019328847619    -1.804093145053    -0.825652956510
H      1.176262180621    -1.694112700723    -0.303003030015

