# STO-3G

title

0 1
C     -0.799664124741     2.012028995182    -1.120721235500
C     -0.331883047669     3.291434164214    -0.748393404807
C     -0.799204102826     4.435331886831    -1.429775447305
C     -1.723840860078     4.306145821120    -2.483316096983
C     -2.189708984753     3.027834944459    -2.847843849651
C     -1.736278254821     1.879161745777    -2.166374107191
H     -0.012500462943    -1.301537036409     1.916779980744
H      0.375151511475     3.405407824159     0.070844037024
H     -0.444170181289     5.419157401629    -1.129621029728
H     -2.083999274815     5.188998036841    -3.006225245734
H     -2.913655498358     2.920306014140    -3.653054150829
H     -2.122532547614     0.902282107663    -2.439655104556
C     -0.075869739399    -0.442654813421     3.711993696600
H     -0.926428174305     0.096314248029     3.302637519088
H     -0.320880653339    -1.295862915915     4.337940810659
C      1.213825372189    -0.060609672448     3.523932304611
H      2.024397586518    -0.605445974187     3.985983458149
C      1.634676337731     1.075451469824     2.689940823503
O      0.837545080551     1.549694754222     1.832628851306
O      2.953777548315     1.548148626531     2.796303946997
C      3.283775156972     2.686148507606     1.986941690492
H      4.348128087654     2.958308897054     2.154603122750
H      3.154565435423     2.460042741967     0.905120245411
H      2.653006567692     3.561675331831     2.260269687606
Pd    -0.117817637155     0.391927503864    -0.190735091244
C     -0.811848814389    -2.387299947489     0.306411645785
O      0.251036273256    -1.721994370965     1.048936463002
O     -0.527215366437    -3.388161145398    -0.332523227839
C     -2.146227482545    -1.642120692257     0.437741134014
H     -2.659476569547    -2.010991152395     1.344968662199
C     -3.043473590680    -1.885307297867    -0.755216166596
H     -4.003238368555    -1.346168348380    -0.612889766281
H     -2.553905855571    -1.509612411258    -1.675554211597
H     -3.253538918179    -2.970024479955    -0.864374250032
N     -1.936307831977    -0.186185597301     0.565137561789
C     -2.641828795894     0.415309771367     1.554192277191
O     -3.336356565019    -0.184149437469     2.432214675025
C     -2.605531922512     1.887276522007     1.564045322734
H     -2.998845909455     2.244440825715     0.597239101944
H     -3.242081287342     2.250114418240     2.389482921682
H     -1.566987051060     2.218890982641     1.712874833835
N      1.874376021346     0.558638509105    -0.957619828511
C      2.179570965559     1.431740891168    -1.973070911330
C      3.494070011593     1.644893245410    -2.336892976160
C      4.513731536411     0.971731100763    -1.704923655858
C      4.185248953941     0.083817750626    -0.717969566703
C      2.829742886794    -0.112475372722    -0.379413431053
H      1.398268257510     1.956990294853    -2.504895584604
H      3.717522711451     2.336998566045    -3.132566284939
H      5.550225246666     1.131665104425    -1.990133332723
H      4.927601358017    -0.487745804233    -0.196213042060
O      2.658243353413    -1.021428336232     0.570941738538
H      1.719212771826    -1.366852592182     0.725839640547

