# STO-3G

title

0 1
C     -0.457581323897     0.894751840904    -1.595115552569
C     -0.678164491600     2.126665213114    -2.245501016784
C     -1.398135028434     2.163238590803    -3.457898972259
C     -1.905091143315     0.976855871165    -4.022827172742
C     -1.685393866777    -0.251788074536    -3.371599741332
C     -0.958938198207    -0.297903784746    -2.162255314904
H     -0.825715338298    -0.506893248704     0.860654583572
H     -0.297391169509     3.052126338464    -1.819607110328
H     -1.559623565579     3.117724103712    -3.955129328416
H     -2.462392597063     1.010153444454    -4.956133658783
H     -2.076844906647    -1.173221283492    -3.798227139925
H     -0.806145110491    -1.259602353184    -1.676371051045
C      2.004671172460     1.128934710828     2.181175007841
H      1.375251448689     1.694073188356     2.859979878363
H      2.725188724906     1.709310700333     1.614468159936
C      1.976021148156    -0.236363641572     2.109149522198
H      2.658329573593    -0.745985241222     1.444307259360
C      1.182916187459    -1.108333302438     2.991550747338
O      1.343753876318    -2.354477331010     2.902242535702
O      0.410104215426    -0.537837674115     4.019498480011
C     -0.386109545390    -1.458074562985     4.779519669332
H     -0.989226088714    -0.896816449096     5.524545547142
H     -1.093335853032    -2.009497718904     4.117339835845
H      0.257360524452    -2.186990823206     5.321200038368
Pd     0.587359545910     0.813645386021     0.117182184460
C     -2.249062531347     0.042246746516     2.148257254873
O     -1.437712577768    -0.897072112921     1.549850288267
O     -3.012305846991    -0.277786903831     3.065978400268
C     -2.208136703225     1.488401001793     1.576093020441
H     -2.594971552087     2.100491565155     2.401547190670
C     -3.163016131735     1.621755502065     0.404164295417
H     -3.112632041201     2.643430568311    -0.022791377898
H     -2.894136640744     0.894908715125    -0.388002558134
H     -4.203582901662     1.418909428297     0.733854606561
N     -0.869501967905     1.905747964108     1.130049854332
C     -0.373249918233     3.139499663398     1.208278001843
O      0.772110034155     3.475782543815     0.710002469547
C     -1.107293602038     4.206495311650     1.924206265234
H     -2.088527106924     4.350573570028     1.442788082701
H     -1.208873923279     3.909376702129     2.981802433974
H     -0.528211273226     5.147239279326     1.864159394128
N      2.280435044978     0.451164741562    -1.010483070853
C      2.618400568051    -0.708184847056    -1.652850376446
C      3.755134462081    -0.754731704023    -2.432275200231
C      4.550033399909     0.361280973855    -2.580158612863
C      4.179416223197     1.515600354743    -1.940411208989
C      3.004779779867     1.532897903180    -1.159612149683
H      2.002371060296    -1.591875371411    -1.532361632704
H      4.019930725931    -1.674091104377    -2.928873070879
H      5.446343990647     0.328331029297    -3.193988192066
H      4.747153907452     2.420607295679    -2.027261955627
O      2.735434057691     2.696804664277    -0.616057612440
H      1.843215754038     2.919591044578    -0.067159860733

