# STO-3G

title

0 1
C     -0.273649404857     1.332116291254    -2.035219722792
C     -0.929492162645     2.546665101462    -2.320303938015
C     -1.457612512360     2.757090517427    -3.611444859522
C     -1.343209132873     1.762703968646    -4.603027731047
C     -0.692898491787     0.550199773527    -4.303878487258
C     -0.150774610785     0.329977030224    -3.019314975931
H      0.028559881611     0.048401003271     1.887391048267
H     -1.026993781918     3.309484492490    -1.551690883991
H     -1.962556774679     3.694950511477    -3.834348468546
H     -1.758934099692     1.928846511812    -5.594300910010
H     -0.606383555241    -0.226478155669    -5.061459755285
H      0.346105822327    -0.612431248980    -2.800021203562
C      2.263531640029     1.229959944201     2.230762610042
H      2.653642455520     0.313771399436     2.669063875468
H      2.758158851724     1.574890858889     1.327284813151
C      1.237798690399     1.943521072151     2.764737382105
H      0.860542686880     2.823156400645     2.260265319658
C      0.543195396256     1.587701452079     4.015703629189
O     -0.518252176386     2.197726821965     4.318210897126
O      1.039877056550     0.544966931435     4.819538796184
C      0.246308195519     0.199279651262     5.962700142769
H      0.737912239797    -0.632128005127     6.512281908663
H      0.149442490605     1.066197575478     6.654761513878
H     -0.765831749753    -0.143828795914     5.650130002415
Pd     0.523384714217     1.139276205630    -0.224995061191
C     -1.342824271287    -1.171577854898     1.162664114704
O     -0.070041993179    -0.923053471440     1.714334588634
O     -1.713971942929    -2.325525215079     0.965429994654
C     -2.167496361888     0.120226579210     0.887581211523
H     -2.870925073390     0.187591158659     1.737256529704
C     -2.980206204223    -0.007847582190    -0.384495995430
H     -3.500636724943     0.945678926648    -0.605791773544
H     -2.319578629069    -0.254344726759    -1.237869928414
H     -3.735108030018    -0.814810171114    -0.276476812833
N     -1.280954824263     1.287525402894     0.784652875335
C     -1.576418795242     2.554579470726     1.157789001659
O     -0.784018260340     3.520634183469     0.927331091509
C     -2.831834960119     2.836941020951     1.894462963745
H     -3.690202516663     2.532764905437     1.275338812949
H     -2.793625266552     2.293615155422     2.854261652867
H     -2.882819481939     3.922288924998     2.098901430157
N      2.354210333503     0.609770042651    -1.042654434408
C      2.960381297231     1.376293260057    -2.003802471097
C      4.162410570456     0.972349846687    -2.547435838798
C      4.758462133697    -0.200282814785    -2.136098349643
C      4.124485800537    -0.949741455371    -1.179497651208
C      2.895439097683    -0.505433900562    -0.654180560900
H      2.499665657982     2.302427602388    -2.328733299937
H      4.634576346486     1.581478055379    -3.301391378362
H      5.705342671127    -0.523369838276    -2.560951123621
H      4.530890619719    -1.874635501407    -0.819053234569
O      2.380763607038    -1.323474744371     0.258474417024
H      1.482610548864    -1.115954800021     0.640725726231

