# STO-3G

title

0 1
C     -0.505736608501     1.245713927129    -1.360180659311
C     -1.180900331446     2.482241731191    -1.278842335431
C     -1.653375281286     3.099695758593    -2.455993632930
C     -1.460656486565     2.489460706809    -3.710670319099
C     -0.783678540238     1.257362198203    -3.786974387450
C     -0.298503082350     0.636946648420    -2.616070435789
H     -0.722295008855    -1.296912891675     1.793912009028
H     -1.338457565123     2.956457466678    -0.313776234359
H     -2.174856874131     4.052417042731    -2.387289989845
H     -1.832214329983     2.965671425013    -4.615139916371
H     -0.628581605878     0.776159142674    -4.750823036974
H      0.224866593930    -0.313619533868    -2.701649258604
C      1.661241798565    -0.620588802534     2.198408083363
H      2.633930546995    -0.426144285851     1.759228246537
H      1.300188618635    -1.641213063930     2.107771334392
C      1.010912055892     0.306892893750     2.965074345977
H      0.087504362965     0.051805676031     3.465561068458
C      1.526645300706     1.648762892028     3.278820160737
O      1.103988532600     2.239999029937     4.308097770852
O      2.580769918499     2.181120943115     2.510599044747
C      3.027530848468     3.489911867832     2.890102203215
H      3.851076583674     3.809073153192     2.216356163593
H      2.197908145984     4.228740913818     2.806129456158
H      3.414165953881     3.487743069317     3.934715109727
Pd     0.229393606075     0.493727503253     0.348298019063
C     -2.102575301832    -2.190979942570     0.802315995965
O     -0.922277313386    -2.233805850111     1.529785937189
O     -2.606120248035    -3.203614789742     0.313536187712
C     -2.708350162321    -0.758108608586     0.743359339787
H     -3.562786480977    -0.804190149871     1.440078818708
C     -3.251626165849    -0.429930101808    -0.629938428167
H     -3.573714973668     0.630775620557    -0.670845700567
H     -2.474690256873    -0.600687026466    -1.398625652056
H     -4.120557507318    -1.081102709775    -0.861358332526
N     -1.708642407731     0.249461886801     1.141122638307
C     -1.956647208598     1.355576550826     1.879856138347
O     -1.065621916677     2.246255577645     2.054071494608
C     -3.271020149293     1.540372154779     2.538762058742
H     -4.054918602082     1.571614847230     1.764221206651
H     -3.420215797357     0.712254789990     3.251569212293
H     -3.255855451563     2.498893967559     3.090732504901
N      2.099650736673     0.696960009802    -0.523461694504
C      2.679302481722     1.925371320365    -0.697941570895
C      3.899411437307     2.019912042244    -1.339678635408
C      4.537140330558     0.887348874971    -1.804001592408
C      3.926831475147    -0.327236904988    -1.615453696990
C      2.683060879548    -0.369929920339    -0.961477774784
H      2.181751915731     2.815967331828    -0.330908245142
H      4.352440520615     2.988268543610    -1.474984778739
H      5.497625730826     0.956302356117    -2.307974224926
H      4.363517107450    -1.246278298424    -1.953020162267
O      2.151974282290    -1.587344179803    -0.826397831248
H      1.257338773753    -1.534740026830    -0.388799104162

