# STO-3G

title

0 1
C      0.652391449478     3.174040715339    -0.436119047091
C      1.797975558892     3.823698675654    -0.991357460778
C      1.983502836265     3.896621867636    -2.374662243084
C      1.043692165287     3.301142745713    -3.257784719744
C     -0.070851583892     2.635041803001    -2.742038981921
C     -0.278630649346     2.561680314295    -1.336137572309
H     -1.683239984981    -1.075180605719     1.446311448095
H      2.509753280079     4.298666511159    -0.319044376943
H      2.844619237630     4.424605354589    -2.777952395015
H      1.188343708812     3.370263625335    -4.333429654491
H     -0.795682101440     2.174625485090    -3.409062704474
H     -1.225061422157     2.174413823297    -0.963664000964
C      0.154308003429     1.740772598638     1.433795985383
H     -0.879008045616     1.376240846944     1.418736822217
H      0.677500546985     1.389785783495     2.324244717570
C      0.349930905824     3.237916402819     1.092743392733
H      1.281320432518     3.564361516389     1.557313713038
C     -0.717006762835     4.210559042545     1.506781444546
O     -0.377308762549     5.340310083329     1.950245037571
O     -2.061054504972     3.795540865941     1.515554720304
C     -3.017979602906     4.776248752036     1.938719938748
H     -4.037891748003     4.336660480826     1.896048303604
H     -2.820628435827     5.095973117805     2.987037215266
H     -2.994292452118     5.665895203801     1.269158571309
Pd     1.037095296501     0.880021247378    -0.190033349038
C      0.616298347162    -1.431329647624     1.406063197916
O     -0.402819457030    -1.495560111616     0.581578511579
O      1.650658256489    -0.709190211063     1.141814001681
C      0.487458679384    -2.054299695936     2.815844194611
H      1.487695731129    -2.055527643437     3.258752945655
C     -0.045606616843    -3.472453121253     2.790972449583
H     -0.069791391388    -3.875680819155     3.824630334775
H     -1.078608633534    -3.474109874888     2.384360570524
H      0.601512604161    -4.117051888945     2.161618574980
N     -0.379967161006    -1.256291612100     3.703827180270
C     -1.504286689341    -0.708382763916     3.400146502506
O     -2.188672013091    -0.663091802418     2.216755808732
C     -2.182025683496    -0.013783712946     4.499419943183
H     -2.376241166791    -0.756075995501     5.291855877749
H     -1.502779805398     0.771474580662     4.869355121343
H     -3.129162643532     0.425918705692     4.137952417841
N      1.752455847890    -0.069133352100    -1.992875747567
C      2.817458912442     0.440007439332    -2.685442141645
C      3.154222180592    -0.082450205889    -3.917747182925
C      2.426685558210    -1.119785616320    -4.459300857715
C      1.371398381523    -1.617357158546    -3.741069903829
C      1.063952596624    -1.059500953699    -2.481379610954
H      3.390785339622     1.258763151255    -2.266873819573
H      3.991264938656     0.328386081517    -4.457786888067
H      2.684738294105    -1.534395273545    -5.430187825494
H      0.765952391354    -2.424946597914    -4.102033758605
O      0.027323056412    -1.622580232992    -1.887432110969
H     -0.154292026740    -1.453603833260    -0.874023006957

