# STO-3G

title

0 1
C      1.263444445817     3.633697216504    -1.097405498547
C      2.362154182689     3.720763203031    -1.991817356695
C      2.203069276673     4.203440752138    -3.303707555603
C      0.937542974823     4.624220826418    -3.756690576053
C     -0.162544347634     4.562741513940    -2.875897357292
C     -0.001007963738     4.076021415168    -1.568067332513
H     -4.548320648489    -0.881397822333     1.472706847631
H      3.349839870846     3.416381405323    -1.645001262566
H      3.066407296292     4.265038809376    -3.963994771218
H      0.812487910342     5.003901560638    -4.768222216154
H     -1.142616825663     4.898608475285    -3.209412338927
H     -0.858419866746     4.028999742991    -0.899116744730
C      1.437374139711     3.099963348488     0.289372784055
H      2.487744001613     3.048600644754     0.594318349496
H      0.864947377369     3.649565397787     1.039486312951
C     -0.822864439139     1.567336664486     1.536475152869
H     -1.261822440964     2.559377442071     1.565043866813
C     -0.524241675365     1.053774948670     2.900277576778
O     -1.091893042425     1.596959149819     3.885324705344
O      0.761586011264     0.505513301582     3.046997832341
C      1.014893208401    -0.106267697618     4.319188954292
H      2.037555584892    -0.541171764849     4.325360807683
H      0.948158720363     0.639743762483     5.143706262368
H      0.290158837353    -0.932714206882     4.507721888507
Pd     0.708665710415     1.171202731245     0.233887776694
C     -1.689775606790    -0.419597034949     0.365295437259
O     -0.553508446983    -0.632642132096    -0.139090564818
O     -2.012079282165     0.714977347453     1.001668231851
C     -2.821363461021    -1.463482717502     0.340852215420
H     -2.322646006458    -2.438710336133     0.328546419115
C     -3.704397437292    -1.341988405877    -0.882674625208
H     -4.479205887054    -2.135809907329    -0.857972846459
H     -4.203385944606    -0.351062828896    -0.877854048099
H     -3.098075840255    -1.450192916360    -1.805309421388
N     -3.646808367164    -1.334462356653     1.537751215402
C     -3.032824042187    -1.451941789690     2.751068953202
O     -1.806394579416    -1.681422152847     2.873461682997
C     -3.859959458255    -1.262753464884     3.960581166470
H     -3.748238884305    -2.164112655088     4.584631032999
H     -3.466930075883    -0.374770023604     4.484626868280
H     -4.918794057866    -1.112116603186     3.687912542712
N      2.360957168859     0.554946021547    -0.971248008757
C      2.336856798108     0.454629492970    -2.336134795650
C      3.490736688386     0.112771720602    -3.016151042858
C      4.660638405300    -0.142789938181    -2.329346592742
C      4.647891437820    -0.039949479012    -0.960780335966
C      3.448069975073     0.313549873504    -0.317152874084
H      1.420029004847     0.658131571750    -2.877893022900
H      3.468527067010     0.040380179700    -4.091368820471
H      5.568561283036    -0.418574110058    -2.859382598904
H      5.517273977495    -0.230293615955    -0.363334167621
O      3.518836465329     0.397758386549     1.016663869909
H      2.618011277666     0.665827023532     1.376147611119

