# STO-3G

title

0 1
C     -1.195645042199    -2.466938888210     1.306529940008
C     -2.166380683775    -2.671981532674     2.306707773880
C     -3.240266696253    -3.556513055032     2.078916884302
C     -3.340670159936    -4.241077989337     0.851488038254
C     -2.363262758967    -4.044500759002    -0.145509387434
C     -1.291487361099    -3.159570276467     0.082208446117
H     -0.380986883375    -1.766621474110     1.469660063526
H     -2.087420729903    -2.149061844492     3.257853948513
H     -3.989308230782    -3.714498848659     2.852164447771
H     -4.167846166925    -4.925720263211     0.675466397547
H     -2.435500201908    -4.576571181171    -1.092082459020
H     -0.546826011585    -2.995121814674    -0.693625481053
C     -1.503041652870     1.045149681139     1.090732972907
H      4.314212011819     0.860769768802     0.884483277522
H     -1.823098769328     0.385644580260     1.897409414800
C     -1.805879429536     2.355659651190     0.999921099943
H     -2.420643263892     2.853614897273     1.741384725241
C     -1.280337901810     3.208234511621    -0.075060678818
O     -1.611979183756     4.421784979707    -0.118903771700
O     -0.329365240421     2.667769278419    -0.962332925129
C      0.176692841590     3.557985155404    -1.966619059323
H      0.919146228219     3.020588591750    -2.598315601719
H     -0.643873298599     3.914896606953    -2.628936533886
H      0.689482593309     4.430447781994    -1.502556601219
Pd    -0.250962239268     0.265017242654    -0.233590495332
C      2.488321733760     0.293250612634    -1.632921039254
O      3.003848176742     1.244314524617    -2.264025452377
O      1.261462008368    -0.186276482958    -1.823703044842
C      3.335072251586    -0.389497724241    -0.503100872465
H      4.356400497018    -0.447684769519    -0.894520151423
C      2.883609331589    -1.780536981418    -0.106391978514
H      3.578239784946    -2.190000085807     0.656065757037
H      1.865094200678    -1.746426571663     0.322958236736
H      2.885242833999    -2.446946626564    -0.993396035425
N      3.403531658607     0.459467417693     0.703241595102
C      2.379861321128     0.853823148951     1.474087641129
O      1.161931830521     0.551467709284     1.324869965067
C      2.733967278101     1.696109890680     2.632912711659
H      1.817982519211     1.936494782096     3.201307588076
H      3.441474091957     1.128937875472     3.260810577662
H      3.202597131125     2.622113888600     2.255331085079
N     -1.804292709566    -0.025599943311    -1.570901472826
C     -3.040668033724    -0.417574016778    -1.125645019103
C     -4.105620108430    -0.478831083241    -1.999899664921
C     -3.942823317061    -0.150564830144    -3.326318711078
C     -2.695014221563     0.211542330512    -3.756493806712
C     -1.621890890735     0.249413626685    -2.839986512192
H     -3.188896343975    -0.686340598636    -0.087098631105
H     -5.072517752549    -0.784226697441    -1.635114153638
H     -4.780345080100    -0.192022800453    -4.017624128312
H     -2.495778688599     0.458306449937    -4.780302124188
O     -0.467474391041     0.558828495112    -3.377778473186
H      0.382208697436     0.346995722104    -2.758673953112

