# STO-3G

title

0 1
C      0.256503214634     2.015451072061     0.805295543937
C      0.085887785612     1.088869387785     1.880987172844
C      1.128735066607     0.918145043661     2.837781492250
C      2.312835230199     1.651606983085     2.719624034829
C      2.481320993163     2.573940426126     1.650286134882
C      1.466929396877     2.759524813602     0.706527603304
H     -0.580918811436     2.253155106596     0.159518013499
H     -0.888310540173     0.640091371706     2.060110929792
H      0.983385485575     0.228739556669     3.664592074041
H      3.104899904811     1.532344978497     3.454744050204
H      3.402361340960     3.147500437320     1.574933291530
H      1.590370175875     3.481017594881    -0.097197443266
C     -0.175112343043     1.308701580224    -3.496051908052
H      0.484533309263     1.696329205206    -4.268980381089
H     -0.271692958352     0.228533061251    -3.427429812188
C     -0.855955647116     2.103587537913    -2.633342319108
H     -1.482172912036     1.646952189503    -1.879417164945
C     -0.805694443543     3.575897672031    -2.621810378071
O     -0.063018536938     4.188905260870    -3.434500711884
O     -1.492378088323     4.258193384379    -1.602978608572
C     -1.342760801225     5.684884229134    -1.591200650914
H     -1.930653302199     6.110140051303    -0.749226393560
H     -0.275666232729     5.969996054121    -1.447981063319
H     -1.720505774078     6.130728677062    -2.539360610218
Pd     0.320797718265    -0.225974287836    -0.097766563760
C      1.013898920640    -3.310128966939    -0.649296170597
O      1.855232766830    -4.233577554380    -0.822220675491
O      0.663948955316    -2.703324779837     0.446575006993
C      0.217996885513    -2.793443042958    -1.978112049900
H     -0.509643026896    -3.593110983174    -2.193892991320
C      1.125588532761    -2.602484800000    -3.168258983721
H      0.535269949860    -2.248403611560    -4.037564618658
H      1.904152969871    -1.853505164015    -2.925463179154
H      1.617447641954    -3.562679020473    -3.428578867169
N     -0.399219287520    -1.526399273367    -1.677589094426
C     -1.609277861301    -1.298185767880    -1.224978310370
O     -1.740048478387    -0.232367206985    -0.442433813228
C     -2.762213826101    -2.168448900187    -1.495314787845
H     -3.660560374777    -1.700992291759    -1.053824948606
H     -2.872244106823    -2.258411588791    -2.589066049408
H     -2.580988608017    -3.150785651453    -1.025649268550
N      2.363389836260    -0.350540660355    -0.191371798918
C      3.035985711508    -1.051868919816     0.776712760930
C      4.405863991494    -1.202141889230     0.687222394176
C      5.100183543505    -0.668331285516    -0.375930973404
C      4.398762068615     0.025991336401    -1.327582927129
C      3.003720719796     0.161761669989    -1.191815107990
H      2.502338281025    -1.462937797130     1.625006310388
H      4.925877074524    -1.759536797167     1.448606565968
H      6.176415255908    -0.794505410280    -0.457315483223
H      4.877325162786     0.465302296135    -2.179531044245
O      2.427992296804     0.838100881099    -2.181597553873
H      1.439069997649     0.912862938734    -2.127282667525

