# STO-3G

title

0 1
C      0.493648868332     3.855913597909     0.089952658138
C      1.179407326006     5.085234999895    -0.063219700785
C      0.648069817352     6.122526824186    -0.849516831390
C     -0.585856861594     5.950361928697    -1.504175853888
C     -1.276737642757     4.728458260063    -1.367176165886
C     -0.744154117499     3.693639431481    -0.583014137047
H     -2.713227280326     0.830582045005     0.632036243912
H      2.132701290211     5.228147659035     0.443600445003
H      1.191482081016     7.059377678318    -0.948903204705
H     -1.000718235740     6.749282381048    -2.114096430656
H     -2.224401832214     4.583075536432    -1.881278519221
H     -1.277069098191     2.748398803568    -0.522137867345
C      1.098213837899     2.807794599507     0.947247405527
H      0.005179246119     0.460819283744    -0.915991661529
H      2.064130754456     3.075899260246     1.378894947058
C      0.418584229631     1.694618161131     1.468562248984
H     -0.628819766642     1.546094164803     1.261262817649
C      0.957970184636     0.828114370255     2.519014717313
O      2.184079596820     0.543414868148     2.456159304797
O      0.059779671836     0.039452037909     3.248126954419
C      0.619023053352    -1.048655399273     3.994462456202
H     -0.202945784277    -1.589858046663     4.514452374571
H      1.127319004179    -1.772520207037     3.317652409398
H      1.337434591571    -0.680009348983     4.760477776415
Pd     1.766401420715     1.079704148745    -0.226550735010
C     -1.061982443159    -1.054485700546    -0.144974583365
O     -0.976058602796     0.108352436494    -0.841455996000
O     -0.093426768742    -1.817299883456     0.055206504503
C     -2.449973147754    -1.259645326649     0.477641000450
H     -2.391931248089    -2.069239027592     1.208891687062
C     -3.523169801379    -1.563594857089    -0.543755739422
H     -4.490904852804    -1.715149009089    -0.022461820649
H     -3.624414172245    -0.704089846307    -1.238151506342
H     -3.264857857393    -2.480153877439    -1.112334149987
N     -2.798628049317    -0.020316878463     1.175759871826
C     -2.971767599824    -0.019176314842     2.532460143177
O     -2.978458327838    -1.047685050421     3.244202544540
C     -3.172582211837     1.298800348084     3.173961883432
H     -4.146879718427     1.269046681335     3.688720496291
H     -2.356894400399     1.431479242913     3.903608440588
H     -3.158154793160     2.110748587745     2.426272311559
N      2.834770693571    -0.012194168042    -1.663593333359
C      3.569920709937     0.730217046568    -2.550858733054
C      4.532021574391     0.124036323529    -3.330747763469
C      4.757060887328    -1.231807201034    -3.235811616597
C      3.995676487939    -1.953866178059    -2.355636363218
C      3.016963915967    -1.297295338886    -1.580835069558
H      3.403790016053     1.798793772925    -2.627922941324
H      5.110055982688     0.717505598075    -4.020995939583
H      5.512949887645    -1.716808376659    -3.848200613398
H      4.108721956973    -3.014602432327    -2.243272589154
O      2.329245655178    -2.114288965347    -0.800963819490
H      1.471209065942    -1.787992241404    -0.379798419481

