# STO-3G

title

0 1
C      0.484305318185     4.011503778797     0.365427339360
C     -0.923961076793     4.176130501900     0.404152389954
C     -1.542674042054     5.182830236782    -0.354821852854
C     -0.777479044801     6.048533042696    -1.163693846213
C      0.622640801513     5.901776656407    -1.201637603659
C      1.243840201185     4.896838480172    -0.441040528365
H     -1.439725560232    -1.191110022907    -0.386285978463
H     -1.536339533400     3.519818816351     1.015633066418
H     -2.623323944261     5.299084625281    -0.308636560429
H     -1.263161246416     6.830014955231    -1.743773856497
H      1.225479977392     6.571545100664    -1.810984508105
H      2.328165623900     4.793140481504    -0.466349558700
C      1.210388476338     2.977477693292     1.142890490357
H      0.596546063730    -0.364244707898     0.938824732303
H      2.286452001670     3.150509866056     1.221402056749
C      0.635605593247     1.986099309067     1.958489530682
H     -0.437095361437     1.907742843985     2.051858683098
C      1.397332988687     1.232671581963     2.967762840600
O      2.638019214629     1.092921186622     2.796767276251
O      0.685643056818     0.414541982134     3.859992362118
C      1.466959566886    -0.521809126227     4.616366319267
H      0.796388153699    -1.112964555895     5.277099697817
H      1.991606531343    -1.236836029790     3.940998199476
H      2.212930892398     0.004301967903     5.253621011324
Pd     1.218994415525     1.206538283573    -0.109769339660
C     -0.261045951454    -2.010121580760     1.914841938290
O      0.767203931069    -1.335003401816     1.269010060467
O     -0.039556112670    -3.038508886497     2.555288741910
C     -1.650530121069    -1.342368844280     1.730826233017
H     -1.769601780976    -0.569247700922     2.502356803596
C     -2.787837687957    -2.330894023483     1.855658940457
H     -3.755600923183    -1.799443651023     1.744116405634
H     -2.702316926953    -3.094317781444     1.055786248517
H     -2.759401872544    -2.827445650355     2.847855023435
N     -1.753826327945    -0.680190332550     0.430431557254
C     -2.158394453562     0.612787440817     0.305071082683
O     -2.457900602132     1.359679921400     1.265251523675
C     -2.241607527043     1.121683402883    -1.077876305806
H     -2.978043985371     0.500484786254    -1.616285968801
H     -2.579350357357     2.173073205358    -1.049213752275
H     -1.249769409276     1.040625839871    -1.548564138645
N      1.583836747205     0.015239937269    -1.811233001458
C      1.459074742172     0.711495059033    -2.986548164770
C      1.971395687611     0.195877161147    -4.157541232054
C      2.605435019273    -1.026779696994    -4.164783706721
C      2.707392545821    -1.708575396129    -2.982021850942
C      2.167395975168    -1.148518728812    -1.805548946882
H      0.965683053728     1.677014597841    -2.991356846004
H      1.871916671345     0.754225051074    -5.074793539212
H      3.009704502744    -1.441446001795    -5.084727696585
H      3.177850136340    -2.670839356043    -2.919393829312
O      2.314502416488    -1.928986395183    -0.745088230065
H      1.856533021548    -1.669979574384     0.113381153491

