# STO-3G

title

0 1
C      0.305466770343     3.991519967236     0.464845842804
C     -1.007728877222     4.290327697676     0.903235922215
C     -1.748839212321     5.316111937400     0.290167071466
C     -1.200020993559     6.062020636133    -0.771934950055
C      0.107430047151     5.776582912339    -1.213672001581
C      0.851046197199     4.758325755238    -0.595224037046
H     -2.200355522023    -0.633654146435    -0.917349659274
H     -1.450528305022     3.723562593759     1.716722180859
H     -2.751499940050     5.539556656225     0.648175427541
H     -1.775293909419     6.858070405232    -1.239289767192
H      0.546067115954     6.349675373644    -2.027619572500
H      1.863592081056     4.545073972517    -0.935898657235
C      1.159763346102     2.966544132229     1.114801543264
H      1.254145998042    -1.179831481607     1.182434226317
H      2.229686678163     3.180372433954     1.045387397642
C      0.728171094007     1.969445521135     2.004999570512
H     -0.318055242602     1.827703573037     2.227792689629
C      1.658891112932     1.207380626443     2.843771217715
O      2.769937181470     0.899451914145     2.327627758987
O      1.187498726817     0.579874777507     4.006206115413
C      2.070463749275    -0.376722833450     4.607603666101
H      1.590096992232    -0.796077377490     5.517902776744
H      2.272042308277    -1.219973515913     3.907912304931
H      3.030658681076     0.100152563363     4.907864358751
Pd     1.273097845137     1.068184275881    -0.000671223736
C     -0.542956739078    -1.879556703160     0.725165859719
O      0.359334191614    -1.319284745184     1.588599784659
O     -0.230927158047    -2.539830053034    -0.283035827733
C     -1.973287733630    -1.416312611104     1.049002623097
H     -2.006793139974    -0.963904790640     2.041976863046
C     -3.003359905068    -2.515798434866     0.929691756136
H     -4.009039287241    -2.102523424698     1.150398908180
H     -2.999928879415    -2.917526776391    -0.104707971265
H     -2.775754564573    -3.330714385736     1.646802710504
N     -2.279465112904    -0.376577864473     0.059275128595
C     -2.512000423238     0.917653394220     0.414604208390
O     -2.481637712450     1.356988213511     1.585887875020
C     -2.836601947634     1.823220975844    -0.706235661380
H     -3.701448369656     1.399979486125    -1.244565080631
H     -3.095620869804     2.813545100340    -0.295873317222
H     -1.956201131047     1.897314392434    -1.365717959140
N      1.879760204273    -0.258376867718    -1.539013979203
C      1.081246886234    -0.935577370443    -2.423320782618
C      1.654681381371    -1.653517398670    -3.455153651962
C      3.025638052998    -1.723189762158    -3.587109406098
C      3.800803970756    -1.047931626708    -2.679170141894
C      3.171525963911    -0.324349189249    -1.650380544287
H      0.002557688836    -0.883160696071    -2.330084789490
H      1.018095645004    -2.184514709361    -4.144364124168
H      3.479363425093    -2.300977092327    -4.388130971700
H      4.872046281903    -1.067277982883    -2.715735976029
O      3.997225781218     0.290440418365    -0.803076255944
H      3.427689056478     0.754658481979    -0.092328612650

