# STO-3G

title

0 1
C      0.423539256495     3.784821166110     0.663911975340
C      1.102436456637     4.640863348170    -0.241179939268
C      0.406415224593     5.592573682975    -1.004171572366
C     -0.990140741153     5.720717760714    -0.866862769370
C     -1.673849497203     4.888809392364     0.042528132204
C     -0.978656737895     3.933108196552     0.803432705995
H     -2.282556303695    -1.151614728314    -1.021699211928
H      2.182849593474     4.552192269043    -0.346376267107
H      0.947151489504     6.236064837036    -1.694841693794
H     -1.533403528851     6.461781369504    -1.449091888813
H     -2.750192815485     4.988407088531     0.166252137336
H     -1.531124788325     3.294535971779     1.484860270585
C      1.227030115099     2.826724382883     1.463836789945
H      0.549544689519    -0.589071203213     1.428633311030
H      2.268172972457     3.133553284794     1.585587547520
C      0.734454891375     1.799479083670     2.296391742541
H     -0.329623769636     1.603843455128     2.347172098194
C      1.531685887637     1.239357364224     3.398762991507
O      0.953862640953     0.661058178309     4.351108738479
O      2.925417654647     1.144365552204     3.223487409547
C      3.641604584616     0.504153145139     4.290225974659
H      4.727823400473     0.492758304099     4.056276253494
H      3.498326927766     1.053360461742     5.249043713734
H      3.302172918594    -0.549654049167     4.419723667101
Pd     1.564026047938     1.018006702109     0.337125628787
C     -1.265290954761    -1.522933731729     1.876555885092
O     -0.197212435124    -1.162328074206     1.058946192053
O     -1.160512335047    -1.737297715419     3.082295149925
C     -2.578542870014    -1.620772198192     1.054473021003
H     -3.367638827209    -1.288866003371     1.737837183299
C     -2.873177491972    -3.038281299827     0.613897560176
H     -3.845761489080    -3.063549481542     0.080308447365
H     -2.076304116026    -3.384608057255    -0.075882896179
H     -2.922906698034    -3.711527371082     1.494708446091
N     -2.554397289283    -0.762383855371    -0.125237628272
C     -2.493769863635     0.586937927916     0.056452213350
O     -2.482141228689     1.129033886043     1.187302383865
C     -2.436971123330     1.433290579638    -1.154300202350
H     -3.279705472003     2.142220577282    -1.100321378067
H     -1.481164072619     1.979740158175    -1.141318395735
H     -2.517082645075     0.817057063711    -2.067132383893
N      2.038256084694    -0.091520155227    -1.407127680738
C      3.235545497477     0.196281540886    -2.010451957541
C      3.485978356956    -0.236800205842    -3.296115626598
C      2.542536020805    -0.969727394633    -3.983860664564
C      1.362686335344    -1.259001959338    -3.351392514891
C      1.154773180799    -0.803561450353    -2.034169579395
H      3.980312012707     0.779151747048    -1.480800028212
H      4.427336320755     0.000739238328    -3.765521642003
H      2.731910609292    -1.314391315770    -4.997295258338
H      0.589047472718    -1.835917498393    -3.819836589299
O     -0.014713222423    -1.169304683738    -1.511249692474
H     -0.101405972284    -1.038530073151    -0.505964220541

