# STO-3G

title

0 1
C      0.294307191908     3.821401600737    -0.051347740947
C      0.875960236322     4.529599236130    -1.133174821767
C      0.085488072463     5.246156825093    -2.048468346438
C     -1.315209011965     5.279558281373    -1.897256534940
C     -1.907712358135     4.595224637895    -0.813148198505
C     -1.115042514210     3.879595915169     0.103097651862
H     -2.642614023810    -1.885663652292     1.118585456175
H      1.956617087159     4.499672267331    -1.263775379803
H      0.557324779682     5.773581678675    -2.874410736396
H     -1.932159097374     5.833726648896    -2.600517852678
H     -2.986380314427     4.625545059559    -0.677357475528
H     -1.593954157822     3.346237876198     0.917571572004
C      1.183005245993     3.079892137561     0.876223975390
H     -1.496066674369     2.245434984700    -1.782058284506
H      2.222610356002     3.411672368602     0.846607060815
C      0.748248476287     2.246834801286     1.922722723835
H     -0.300463631216     2.046257014728     2.062255088062
C      1.630275661047     1.775650469898     2.995806020859
O      2.802678994298     1.451869293617     2.660238387982
O      1.047662324440     1.246699383940     4.157431629498
C      1.955157977077     0.693773568204     5.121133482144
H      1.379687586938     0.334788420788     6.002145481940
H      2.509163466997    -0.173245403688     4.695445878858
H      2.679174172166     1.463752152943     5.472153324033
Pd     1.626033026621     0.996289436158     0.291155648575
C     -2.171264419601     0.558482115886    -0.963765398706
O     -1.184975280854     1.342537740744    -1.543429008529
O     -3.374014453600     0.821441335116    -1.040443207237
C     -1.516824929912    -0.633562380231    -0.227111984971
H     -0.494315287754    -0.311545009194     0.036406286891
C     -1.447571212116    -1.871131276275    -1.098258238274
H     -0.906995372386    -2.677076639595    -0.560887051799
H     -2.479098529625    -2.215494098883    -1.322839612182
H     -0.925913452363    -1.651704794680    -2.051671256848
N     -2.269482164939    -0.957187663482     0.981642446382
C     -2.504572811289     0.000135443792     1.914682100363
O     -2.127302733227     1.189043271705     1.805900040453
C     -3.255034704179    -0.429313242591     3.111117682869
H     -2.682129508325    -1.231432613826     3.604247661905
H     -3.372228201007     0.439858572995     3.781540492276
H     -4.242462066244    -0.794810928489     2.778990446625
N      2.408209481161    -0.497016056504    -0.963893296358
C      3.468765455610    -1.265628742839    -0.560454625358
C      4.074282831954    -2.126704294889    -1.452610048348
C      3.621349620728    -2.222534530388    -2.751726343709
C      2.558806822863    -1.441902594753    -3.125844212693
C      1.971999659300    -0.578509562540    -2.180853007829
H      3.830641061815    -1.195187909924     0.459178595423
H      4.908480747741    -2.728761402893    -1.128894056625
H      4.093702885720    -2.898958645525    -3.459638070817
H      2.154139116259    -1.466007203571    -4.119354147904
O      0.944140564823     0.124562344444    -2.654816523481
H      0.468409593161     0.695324107300    -1.980982959666

