# STO-3G

title

0 1
C     -0.151650759287     3.409820606490     1.178414995506
C     -0.010672599090     4.508224791757     0.293021559752
C     -1.120591512809     5.275397645472    -0.098056446777
C     -2.402800329290     4.961337109975     0.392905042113
C     -2.556889390644     3.878487028549     1.281801465053
C     -1.445804630526     3.115104376413     1.674702528390
H     -0.671328803904     0.314926403428     0.017443415891
H      0.978421734190     4.759096422254    -0.087138500478
H     -0.988249784418     6.114633888388    -0.776972829846
H     -3.267105136753     5.548032915490     0.091851102031
H     -3.543143068419     3.630316041814     1.666388317538
H     -1.591173847423     2.298366431232     2.377672268713
C      1.068554795031     2.667461707317     1.575725211294
H      0.270557769228    -1.265073030315     2.528917400748
H      1.993360325145     3.206155842185     1.364102187099
C      1.126112230334     1.550020576054     2.433741117294
H      0.211863435944     1.133491243242     2.835973203296
C      2.352753036175     1.131710948214     3.128905888371
O      2.276385655137     0.226748252243     3.996785208532
O      3.585322786446     1.458062809369     2.533934845680
C      4.751173207071     0.942636010451     3.194240875263
H      5.663198906024     1.278049780537     2.654588266746
H      4.811662791977     1.317050221677     4.241893754575
H      4.744047315886    -0.171678026368     3.203432710303
Pd     1.458013644186     0.922735139390     0.322862287107
C     -1.630564517270    -0.931772065113     2.008144777115
O     -0.301272032400    -1.294677636930     1.730546697549
O     -2.020257860997    -0.768792973794     3.165651386022
C     -2.431125553156    -0.723065865861     0.723135602984
H     -3.381983878937    -0.253770958142     0.995630171392
C     -2.725202534354    -2.026628540909     0.004180085296
H     -3.378404896165    -1.830111058208    -0.871124047685
H     -1.780209832446    -2.481084526335    -0.354485495691
H     -3.242825522582    -2.732816530613     0.685629101751
N     -1.675829930989     0.162620563757    -0.169429829460
C     -2.341176644749     0.909334085199    -1.089555382287
O     -3.581950886561     0.867788771808    -1.268738393210
C     -1.531679264954     1.826183472720    -1.920910932149
H     -1.730306681014     1.574782018541    -2.975826963880
H     -1.880493548418     2.848978909513    -1.698735459261
H     -0.458648294989     1.732046216546    -1.696596422721
N      1.813241025395    -0.182291566124    -1.437164108728
C      2.473279642134     0.424569817917    -2.473894799206
C      2.788077332381    -0.292874364248    -3.609154253800
C      2.441606228138    -1.623084377706    -3.714658663246
C      1.782777771564    -2.204606182074    -2.663942491438
C      1.479438298113    -1.431872627430    -1.525854069811
H      2.747661646694     1.470604852116    -2.400312083444
H      3.305393818645     0.192625231940    -4.421313703306
H      2.682876669381    -2.194599281985    -4.607354290434
H      1.477214167595    -3.232739254301    -2.680519113174
O      0.828018134775    -2.103231822210    -0.579646018747
H      0.541293039204    -1.582827318467     0.223998508599

