# STO-3G

title

0 1
C      0.260721407841     3.964928254376     0.646136188572
C      0.899855569762     4.864152947725    -0.244054991879
C      0.178751566765     5.879345085187    -0.893736279583
C     -1.201263104775     6.027857274133    -0.651929034964
C     -1.844613880596     5.150719069115     0.244204438891
C     -1.125817228059     4.127225173487     0.886827996408
H     -2.650444542090    -0.547873486408    -1.098227129445
H      1.968322061127     4.757769855800    -0.427835587834
H      0.689584292718     6.555448912728    -1.575772575498
H     -1.761493340534     6.821003012414    -1.141888517530
H     -2.904485516675     5.276547427588     0.454851626283
H     -1.636535666832     3.465985144452     1.581441668046
C      1.085708664545     2.940639369952     1.333863629697
H      1.091744005899    -0.825438218600     0.795271250682
H      2.134594111862     3.226015323870     1.454217095303
C      0.605117435170     1.828105458393     2.039658954952
H     -0.448192870462     1.596244898428     2.085923610873
C      1.458285538711     1.029326543847     2.925612698986
O      2.649065041787     0.838208825744     2.549389891920
O      0.871973604450     0.247958223283     3.932185897026
C      1.725842979036    -0.719345721426     4.557629739029
H      1.150649165647    -1.264651031358     5.336805222568
H      2.086222388070    -1.465328754856     3.812904966642
H      2.595570081900    -0.226121048877     5.047307676126
Pd     1.520397148726     1.225887215444     0.023150499699
C     -0.618419248003    -1.690657420802     0.239773323230
O      0.259788166230    -1.241400356800     1.180424192515
O     -0.304105031440    -2.049815241418    -0.911910639580
C     -2.076700829596    -1.512571945207     0.705920511198
H     -2.095804214225    -1.221779103611     1.757786755348
C     -2.936514430749    -2.734196602580     0.475949130102
H     -3.974033428840    -2.520221723156     0.805426615340
H     -2.947850698337    -2.982296894630    -0.605570154395
H     -2.537916517878    -3.594307725441     1.051504038547
N     -2.612580545689    -0.406350849597    -0.095210296270
C     -2.830651855618     0.831357350291     0.426794032333
O     -2.598238390252     1.166263351795     1.611429742983
C     -3.393011445068     1.817520246908    -0.518543079765
H     -4.322494305876     1.394358289185    -0.935370457400
H     -3.610470363966     2.748254696028     0.030958454359
H     -2.649869335903     1.999875681718    -1.313230708129
N      2.309932935497    -0.004064276657    -1.492884674816
C      1.625585554232    -0.516686419366    -2.564282662374
C      2.305915452339    -1.222640461400    -3.537734708108
C      3.662725311997    -1.444027096532    -3.427874300191
C      4.318589246375    -0.931167119030    -2.337764063549
C      3.585282164827    -0.212595459597    -1.376689508895
H      0.560528850863    -0.340374775109    -2.663192274512
H      1.759276672293    -1.623336288370    -4.376166130924
H      4.197170607371    -2.012807924280    -4.184312093736
H      5.369760624690    -1.074442151096    -2.183508266597
O      4.295517661512     0.234024922091    -0.340221572937
H      3.660929367402     0.702244856770     0.303022349452

