# STO-3G

title

0 1
C      0.386377578341     3.909435867264    -0.569116070469
C      1.356630814318     4.521591786871    -1.404524717232
C      0.983627212131     5.250570620560    -2.545500723362
C     -0.377545288954     5.388906165357    -2.879283942193
C     -1.352732240694     4.788326497908    -2.058264053081
C     -0.979582273720     4.060293988415    -0.916934793968
H     -2.649791463465    -1.273201682712     1.579379042797
H      2.411874512716     4.420260336153    -1.152591529281
H      1.748595118057     5.706188074213    -3.170164526469
H     -0.672759001741     5.949941036199    -3.762682179505
H     -2.406268840626     4.881586337818    -2.310832541489
H     -1.753691669662     3.601238109404    -0.311381034004
C      0.858038887651     3.187473436269     0.643968486869
H     -0.855427212776     1.038840574356    -0.256699343211
H      1.884658763218     3.443448147388     0.912675659814
C      0.031980196999     2.598686334408     1.652475959168
H     -1.040246024939     2.575602035727     1.510978133342
C      0.460144869111     2.460806894050     3.053305118103
O      1.686698475543     2.300924110759     3.288769572491
O     -0.508595313662     2.173185336171     4.027416273028
C     -0.021290297095     2.014359721876     5.367697082027
H     -0.875462947330     1.804040853706     6.047544188694
H      0.693065666764     1.162593746332     5.434782839429
H      0.479647104865     2.944814508100     5.719717542513
Pd     1.039766815549     1.025828154962     0.558291609657
C     -2.339290740982    -0.196357250676    -0.881259548703
O     -1.796149587987     1.042213674709    -0.666518479084
O     -3.416874496607    -0.339808696311    -1.473832566544
C     -1.530570875534    -1.356824664567    -0.224687393565
H     -0.464478500676    -1.230141113115    -0.440502268349
C     -1.979299492514    -2.726651471988    -0.679440620818
H     -1.370284760505    -3.505167465716    -0.175808524200
H     -3.046116073318    -2.872791717722    -0.409724779619
H     -1.862129964703    -2.821288833502    -1.778631667109
N     -1.697868714700    -1.279436959136     1.233047977401
C     -0.665272763925    -1.142513359627     2.096875508803
O      0.542600135879    -1.025112621524     1.759973202359
C     -1.022745199108    -1.127831452227     3.527439618530
H     -1.531833727095    -2.079400175591     3.757591612638
H     -0.101427282110    -1.026774831318     4.125867074503
H     -1.700217962983    -0.273980761176     3.707063254702
N      2.073092197679    -0.286152860135    -0.805141969586
C      2.701100683036    -1.440285622043    -0.413653047126
C      3.289118374682    -2.255443318726    -1.362178139925
C      3.251690584408    -1.918158890937    -2.699902049673
C      2.621322477698    -0.754225518407    -3.058451492868
C      2.037936384738     0.041694910378    -2.056370121035
H      2.743732014457    -1.710185474503     0.634789477476
H      3.779536731338    -3.163126287476    -1.049085232130
H      3.711089150202    -2.557496327876    -3.449391688150
H      2.552216789819    -0.429338793062    -4.078326900668
O      1.440997779185     1.152789733376    -2.493678091448
H      1.076000798525     1.668565081525    -1.716742803618

