# STO-3G

title

0 1
C      0.261059327379     3.671873997014    -0.578190487557
C      1.133858773912     4.032642058354    -1.638264307193
C      0.660397413922     4.677565014673    -2.791631559472
C     -0.708597806607     4.989813327548    -2.924669896853
C     -1.589525413747     4.656675133004    -1.876842972327
C     -1.113089025804     4.011554084455    -0.716529817802
H     -2.684919623078    -0.870172029769     1.558006567378
H      2.190351652077     3.782827707976    -1.556677352385
H      1.355297567046     4.930381259082    -3.589212584474
H     -1.076903393217     5.487612212464    -3.817961796433
H     -2.644364354047     4.912629926992    -1.950949924861
H     -1.803660675150     3.805140715246     0.095901187470
C      0.814994099064     3.011811764005     0.631503800402
H     -1.561963760289     2.106949617216    -1.680615381202
H      1.835971490293     3.322076836912     0.858849796749
C      0.025966801376     2.416760210837     1.670777913046
H     -1.046334962589     2.340926948102     1.547693031036
C      0.486581065377     2.309865256473     3.063603446409
O      1.721386017908     2.172140443824     3.269120850371
O     -0.451756258246     1.983857990605     4.055267774219
C      0.072833932041     1.789327333938     5.376420897939
H     -0.761854566686     1.557417859192     6.073164447689
H      0.789557878719     0.937086959480     5.398419843750
H      0.581476015532     2.710865959886     5.740674999817
Pd     1.064366610018     0.866430956156     0.601489268300
C     -2.060308212130     0.576426961037    -0.547516422836
O     -1.408799654053     1.128013109325    -1.616848842402
O     -2.928053529707     1.175443233104     0.112091307412
C     -1.605490809392    -0.863862607880    -0.245890886026
H     -0.550540822340    -0.966474298004    -0.508579774631
C     -2.416461640990    -1.893817763062    -1.000731136198
H     -2.044595836322    -2.909785334478    -0.754772908663
H     -3.481547518415    -1.820036641041    -0.697233692150
H     -2.327467350821    -1.725316861827    -2.094078393737
N     -1.772295357853    -1.106846465151     1.183637798287
C     -0.718224163037    -1.246541343636     2.025517762827
O      0.491823165876    -1.263470896433     1.676254534134
C     -1.059987442332    -1.389395034640     3.453328099972
H     -1.703587231919    -2.279733737294     3.556841197375
H     -0.130140661411    -1.511866084071     4.034585662941
H     -1.603139228010    -0.482075992501     3.772867695039
N      2.260396247221    -0.390894450125    -0.669775909836
C      3.088499797746    -1.344450845830    -0.138556314343
C      3.894112728360    -2.094796791691    -0.974416980717
C      3.862724257514    -1.899637384063    -2.340569988879
C      3.011534273388    -0.947680447451    -2.841170722933
C      2.209908749264    -0.213618134897    -1.947662011901
H      3.121110923338    -1.498427534554     0.933998636665
H      4.547216973732    -2.840658663356    -0.551193198553
H      4.491621741782    -2.489078528766    -3.002675971586
H      2.923362357094    -0.750083371556    -3.891342903396
O      1.387247189136     0.671989673962    -2.522054978712
H      0.793539648592     1.085124615367    -1.835053005319

