# STO-3G

title

0 1
C     -0.043348668431     3.496348184721     0.121228302938
C     -0.389880204703     4.834944262802     0.426321825977
C     -1.368061079259     5.518701260280    -0.317970147173
C     -2.012961606564     4.882003756771    -1.396451435076
C     -1.657505107598     3.561077371003    -1.731067307524
C     -0.681068509143     2.876252629595    -0.982413259959
H     -2.225666009445     1.409548636778     0.075371597955
H      0.102414556677     5.337234664121     1.256944635583
H     -1.622863487711     6.544295929981    -0.060506062969
H     -2.765090138553     5.411918795823    -1.975703636801
H     -2.121969579788     3.071231337925    -2.583783385565
H     -0.367679189234     1.881484918245    -1.289388535926
C      0.970977932023     2.804070904400     0.972400088720
H      0.792523933501    -0.675770204094     0.078079511037
H      1.795552501888     3.436499427886     1.306618721845
C      0.716559204253     1.605670243630     1.670129853286
H     -0.222929482174     1.089024943634     1.568991807412
C      1.561772020888     1.124920838402     2.767279800786
O      2.807443336545     1.267579439162     2.629718637350
O      1.033267785472     0.197247524586     3.674558007891
C      1.961467221899    -0.387992680690     4.598106389131
H      1.416467736395    -1.090394922416     5.266293327166
H      2.745814698883    -0.967276002115     4.060072790390
H      2.439503652812     0.393064836886     5.231370137200
Pd     1.998100401249     1.188966642816    -0.107937094475
C     -1.014658049020    -0.834841842565    -0.751643883739
O     -0.129331232164    -1.022868230647     0.277291711212
O     -0.662906930085    -0.685097395521    -1.938281376332
C     -2.444231662965    -0.697384722118    -0.191404833607
H     -2.640008815499    -1.508329599453     0.518691816799
C     -3.508135436699    -0.675208608912    -1.264767262311
H     -4.506711721423    -0.585961257649    -0.789418038772
H     -3.347013939776     0.201750947281    -1.924525695945
H     -3.468149201114    -1.607831670321    -1.863727787148
N     -2.508716169209     0.561876714033     0.558274054186
C     -2.823981744093     0.565973125888     1.887245120354
O     -3.105551136504    -0.455651221492     2.550059688454
C     -2.831395839909     1.883465874139     2.563115743232
H     -2.552565378729     2.688131873009     1.859067202040
H     -3.850935460912     2.047552888975     2.947027385093
H     -2.109563439721     1.837665345588     3.395829979681
N      2.917591046389    -0.220245272565    -1.374839868897
C      2.458478064253    -0.552242920423    -2.623548908590
C      3.137243451941    -1.491752525164    -3.374727948672
C      4.262442243240    -2.113764162665    -2.874538894668
C      4.694151555745    -1.764955330311    -1.620033101683
C      3.974183224916    -0.798795246401    -0.895229823086
H      1.582046586331    -0.061144274290    -3.028988879198
H      2.769418567412    -1.748740886115    -4.355347852031
H      4.791818700326    -2.861784485670    -3.459135975814
H      5.555556003971    -2.214357896698    -1.166514242541
O      4.447285837814    -0.535666456800     0.322381295822
H      3.862398691110     0.162682305839     0.757281622755

