# STO-3G

title

0 1
C      0.170867494935     4.170677791474    -0.116976933041
C      0.818540355589     5.325809037703    -0.621751364794
C      0.181096312447     6.175938307407    -1.540722178423
C     -1.127090626668     5.890033206719    -1.975948623984
C     -1.785230472628     4.745905607639    -1.480801157276
C     -1.146806803427     3.896092320720    -0.563450764448
H     -2.628952838003     0.387595998507     0.791178124516
H      1.830702699624     5.553234425820    -0.289845707300
H      0.699628302383     7.056501001628    -1.912915714625
H     -1.625665256370     6.546123384254    -2.685372140707
H     -2.796110829728     4.518521142939    -1.811857866898
H     -1.674008242232     3.018047915718    -0.202631733416
C      0.901972411757     3.323295487001     0.856088937774
H     -0.108552170961     0.994499800200    -0.993317960990
H      1.825400685244     3.767854213814     1.232388863945
C      0.389784273546     2.188958575881     1.513345463912
H     -0.608337066382     1.831702586192     1.316195128721
C      1.050115799236     1.556220696240     2.658994720039
O      2.309914696955     1.513306647692     2.636094346791
O      0.309560922389     0.658109618694     3.437412430623
C      1.055455757605    -0.216578189027     4.294987310784
H      0.349032043162    -0.882919583939     4.838433976818
H      1.738185893942    -0.866843215864     3.702361873560
H      1.641405049749     0.361992958875     5.044045688619
Pd     1.757094613782     1.571652805742    -0.159356179110
C     -0.995770747812    -0.811330289596    -0.945508722954
O     -1.001995371910     0.559561234459    -0.806990456254
O     -0.264373204128    -1.416588136404    -1.741897348016
C     -2.006572410991    -1.472723229627     0.008926575706
H     -1.514751518185    -2.339098400472     0.465438751427
C     -3.249443056127    -1.942926334129    -0.715443405838
H     -3.916566017725    -2.466490009352     0.000250447078
H     -3.787112277451    -1.063924349652    -1.126139794849
H     -2.978446925453    -2.637570809774    -1.537251455978
N     -2.413691965694    -0.561659764386     1.072138281607
C     -2.239920670376    -0.880917551575     2.387447972674
O     -1.727917495906    -1.944220369969     2.805942322831
C     -2.779309657538     0.107263722632     3.345878806306
H     -3.862610433643     0.195045055626     3.160384296574
H     -2.584737715900    -0.256238830199     4.369005086797
H     -2.276234689238     1.073121287930     3.176477341499
N      2.697707695607     0.095167501793    -1.343989450891
C      2.306876110820    -0.251121276667    -2.612049306829
C      3.010558174588    -1.213845589613    -3.309093102032
C      4.082919842603    -1.857824375771    -2.729489536725
C      4.439246729045    -1.504113754421    -1.453331043415
C      3.698911230843    -0.509921623282    -0.788679180491
H      1.461704556674     0.246674012994    -3.074049441448
H      2.693131392483    -1.481885090256    -4.303924495440
H      4.627054458411    -2.629376481438    -3.267993918689
H      5.253562959015    -1.973307277302    -0.937447658716
O      4.103487906211    -0.254586947915     0.457481910882
H      3.505923177173     0.439322864831     0.867026422769

