# STO-3G

title

0 1
C      0.489593451422     3.495031164794    -0.169262659743
C      1.422337830502     3.906586509345    -1.157243370636
C      1.023802293215     4.655260938673    -2.275937372564
C     -0.324948498988     5.031495921311    -2.437564369036
C     -1.259566724655     4.664377602147    -1.449859100976
C     -0.860002941040     3.910790132615    -0.328878905065
H     -2.724160427611    -0.372921271798     1.049056799803
H      2.469743466459     3.631061372808    -1.037387392297
H      1.762559753315     4.954428798788    -3.016567850533
H     -0.636542585624     5.612731336363    -3.301747332698
H     -2.297312793383     4.979142202714    -1.542461700419
H     -1.585805807866     3.697850337302     0.452477541722
C      0.974769518299     2.701462060149     0.986380062968
H     -1.620330213911     1.997488925948    -1.048870585278
H      2.052345675065     2.782926178780     1.144617618303
C      0.170362615776     2.236817045488     2.076619030966
H     -0.898885372002     2.399220513113     2.058875590857
C      0.727444577322     1.977071630657     3.411012789074
O      1.860852235565     1.433147105038     3.473348050112
O     -0.154652419294     1.930157814589     4.501697219798
C      0.423606236723     1.558323010359     5.761348079418
H     -0.362588015232     1.576770642943     6.547380709610
H      0.844791181994     0.528092122749     5.718897971674
H      1.224593014091     2.273644235304     6.057125253874
Pd     0.768969373860     0.590767007537     0.764078797086
C     -1.601495641260     0.043777588010    -1.449164990674
O     -2.005439025246     1.145193921506    -0.725889976091
O     -1.103838577372     0.111283074543    -2.580148172079
C     -1.884077546948    -1.261832928766    -0.670961825582
H     -1.036078208794    -1.928055155924    -0.851801951402
C     -3.152001279873    -1.939650114552    -1.139978980042
H     -3.289769877065    -2.891546217251    -0.586762290399
H     -4.019484244286    -1.278485714572    -0.936265500452
H     -3.094211302913    -2.153792854788    -2.227459564936
N     -2.002296742380    -1.024942725664     0.764068296025
C     -0.942217587568    -1.195586852912     1.595472690367
O      0.149631096343    -1.748376814327     1.250134791123
C     -1.183519791455    -0.907420879539     3.018376600425
H     -1.966732273875    -1.605853549671     3.362333471701
H     -0.253700733274    -1.071276935807     3.591177508543
H     -1.548654644650     0.127722052872     3.124299287415
N      1.804067645967    -0.200218917656    -0.997793111976
C      1.880079232282     0.546218115878    -2.144968975530
C      2.829234473309     0.242496846975    -3.101640523546
C      3.683358898806    -0.825533004218    -2.928668634966
C      3.564035520704    -1.573422829311    -1.785878407600
C      2.580682803235    -1.225018148593    -0.838464213697
H      1.209304467535     1.383483231911    -2.292980449641
H      2.881576550742     0.838489928326    -3.998192562532
H      4.424048744034    -1.074513252132    -3.683928628659
H      4.180356323470    -2.429080475574    -1.594882767701
O      2.520847293575    -2.035611022470     0.216869974836
H      1.694952084149    -1.887951973759     0.765662471022

