# STO-3G

title

0 1
C      0.185585814090     3.827699630825    -0.072834986658
C      0.406234532169     5.223404756540    -0.161899980967
C     -0.323946374033     6.018589348518    -1.062875335298
C     -1.288081608324     5.431430349110    -1.903995783124
C     -1.503064749094     4.039416052768    -1.842906928963
C     -0.774017764867     3.246265369843    -0.942239018546
H     -2.614471487263     1.049779898776     0.551268153499
H      1.148978522177     5.686667068690     0.485718767261
H     -0.140640100475     7.089685687704    -1.109237031655
H     -1.850883324463     6.043658661865    -2.604469054534
H     -2.222569314920     3.572448799983    -2.511585086828
H     -0.907028278602     2.167753966692    -0.959423767199
C      0.960326237920     3.037904413419     0.917464068297
H      0.871914637031    -0.462506156416     0.059177841890
H      1.796559052546     3.565033610906     1.379057956708
C      0.500528880144     1.847542775490     1.509667281914
H     -0.463622244840     1.438954462764     1.260229057064
C      1.133035475430     1.229039138164     2.676303068443
O      2.393713082421     1.183174713802     2.686617957781
O      0.360022857929     0.417134564702     3.516088141079
C      1.077536386222    -0.422719766985     4.429467269271
H      0.349074676698    -1.016139758453     5.024847346527
H      1.727935661927    -1.139767884239     3.878932646421
H      1.693243262433     0.183975847788     5.130766481285
Pd     1.974167750784     1.390154243323    -0.116302137299
C     -0.940553374880    -0.781715321903    -0.707951808818
O      0.014524339885    -0.955621509086     0.254273936274
O     -0.687051131001    -0.423366989391    -1.875487350115
C     -2.339714936172    -0.978608829345    -0.089584853572
H     -2.349329235965    -1.920620177164     0.470164804544
C     -3.454147522325    -0.966443263519    -1.110816993100
H     -4.424903237421    -1.125389127139    -0.597541620367
H     -3.475858163541     0.017487431882    -1.622184346905
H     -3.297922540388    -1.771788868928    -1.857367738674
N     -2.582026479351     0.091779588098     0.881877376748
C     -2.678713527084    -0.190740739950     2.218406084464
O     -2.578753328448    -1.333607758624     2.709740772704
C     -2.973425933940     0.966020511571     3.090848983329
H     -3.932035826502     1.400094750268     2.761953350703
H     -3.043720910990     0.605976063552     4.131616089325
H     -2.156575974816     1.699117193124     2.994141635994
N      2.897289651158    -0.070559284560    -1.312263048847
C      2.486059552554    -0.394302040850    -2.579388240156
C      3.178386106708    -1.347974371208    -3.299846564211
C      4.267907526936    -1.991905345462    -2.749952823153
C      4.648866731917    -1.653319386139    -1.476172275499
C      3.915746709287    -0.674012007385    -0.782920470249
H      1.634168038867     0.110384440911    -3.020033617775
H      2.849518212010    -1.598689024020    -4.295712472928
H      4.807576125784    -2.750858155808    -3.310506438551
H      5.476964915837    -2.122895301933    -0.982911388345
O      4.330941344778    -0.425531083593     0.458368846688
H      3.724440880105     0.267906115225     0.874344477535

