# STO-3G

title

0 1
C      0.021669226795     3.508127415024     0.197467226715
C     -0.282753717036     4.858478142999     0.494650710042
C     -1.212339110936     5.579613693536    -0.276455249702
C     -1.847955510573     4.969161994183    -1.375122871661
C     -1.531770994198     3.636051986374    -1.702509024462
C     -0.604869818268     2.914072656446    -0.926847696310
H     -2.347355594991     1.400907445156    -0.142563716822
H      0.203119230616     5.340953109993     1.340660798644
H     -1.436114102468     6.613617394212    -0.023969489978
H     -2.561430447458     5.527880076040    -1.975818562891
H     -1.986002048356     3.167303917969    -2.572670234341
H     -0.320649903651     1.908072440156    -1.225460425781
C      0.984543517131     2.777076400484     1.074268868151
H      0.806003146958    -0.660100859838     0.140489798956
H      1.809570114695     3.384809105418     1.451030440755
C      0.686362700679     1.567215337437     1.733396002694
H     -0.258239455198     1.068530885671     1.592873895094
C      1.496517805038     1.040032290986     2.836619834852
O      2.746850672816     1.174440531707     2.735532190459
O      0.938783368069     0.079381935318     3.690147881252
C      1.836120514363    -0.542630253955     4.620065642638
H      1.268487022223    -1.267468944511     5.243910570078
H      2.636005247170    -1.103895152682     4.085944079819
H      2.294903224142     0.212914185032     5.296962218162
Pd     2.023708376174     1.174508802627    -0.015581158615
C     -0.979026705393    -0.834618393789    -0.730616394802
O     -0.114599787213    -1.030484945072     0.312036183514
O     -0.605698378398    -0.635066308057    -1.904033991910
C     -2.424637444662    -0.740494276988    -0.206114921895
H     -2.580210027120    -1.487774397166     0.578635898998
C     -3.466585494595    -0.892303267387    -1.290497966709
H     -4.477989445797    -0.821921734241    -0.839799715549
H     -3.348058002775    -0.075760424114    -2.031951943684
H     -3.355750537637    -1.874487499027    -1.793543340936
N     -2.581286272304     0.581534316181     0.410717509102
C     -2.932562349315     0.716916252775     1.723113887473
O     -3.129149679277    -0.229544413628     2.514256120569
C     -3.097244476637     2.111694420497     2.185683511692
H     -3.890248591839     2.575274262426     1.575846261416
H     -3.380175591653     2.097534552604     3.251878482978
H     -2.143082828209     2.646881118574     2.040530428200
N      2.958537436100    -0.214717526572    -1.290155846490
C      2.520945762516    -0.517874427282    -2.553756987131
C      3.204539937143    -1.450670102970    -3.308977642875
C      4.312912059085    -2.094209055622    -2.798410116548
C      4.722678001418    -1.774275327489    -1.528881611789
C      3.998304212002    -0.814337386654    -0.800189675208
H      1.657903494846    -0.009645638371    -2.966918560676
H      2.853955459895    -1.684892941676    -4.301529347776
H      4.846070045596    -2.836738310757    -3.386555462278
H      5.569638977926    -2.241900228006    -1.066693988491
O      4.447778750272    -0.580590453686     0.432404632919
H      3.858067608527     0.112814903477     0.869434103399

