# STO-3G

title

0 1
C      0.175776454136     3.206573868721     1.156996190053
C      0.308080162448     4.205438301398     0.158804086600
C     -0.819545654338     4.849556878266    -0.377077121271
C     -2.107612494218     4.510301422041     0.081172376441
C     -2.253556724598     3.525415802505     1.079134219473
C     -1.125740067547     2.882782706474     1.616348165001
H     -1.610498279866    -0.225702559625    -0.986845453742
H      1.302190139415     4.472956665049    -0.196846288824
H     -0.695559788877     5.612113573972    -1.142498755275
H     -2.986424752002     4.999674287088    -0.330550706243
H     -3.246252183796     3.250287000056     1.423203581524
H     -1.261708881481     2.144500859372     2.401821709015
C      1.411287657452     2.599321151214     1.714114769788
H      0.565599710133    -0.604458452008     1.116813349771
H      2.300561102794     3.211228745718     1.551776076784
C      1.476352569238     1.524060925512     2.621517170948
H      0.573753237507     1.020063864040     2.939724305295
C      2.666345993227     1.231903340194     3.435773563856
O      2.597016671883     0.323834491279     4.300729462911
O      3.913176946600     1.659242083031     2.943463441320
C      5.051991924017     1.302253699309     3.741422243224
H      5.975101937619     1.711068173892     3.276191028630
H      4.965620133845     1.727336621381     4.767802815548
H      5.159383259633     0.195388096060     3.811626209263
Pd     2.067339304191     0.829673347478     0.577606012773
C     -1.409900622299    -0.765800552857     1.578748642811
O     -0.307285757204    -0.990030286468     0.783708568457
O     -1.344750276146    -0.460776683965     2.778596258438
C     -2.691408086268    -0.859680370364     0.733671944676
H     -3.517653204990    -0.417840174387     1.296421313656
C     -3.042821229295    -2.281881220631     0.353653365786
H     -3.989927496485    -2.282761167700    -0.224286915208
H     -2.236126963842    -2.699355834953    -0.283274238578
H     -3.166727733529    -2.903805772150     1.263652813038
N     -2.488530461986    -0.085305330012    -0.491719414041
C     -3.334476503438     0.922830142554    -0.833822084183
O     -4.363506879990     1.246168243379    -0.194902915789
C     -2.964759324975     1.667120022442    -2.054411016504
H     -2.907703869811     0.944993905605    -2.885112111251
H     -3.735133671648     2.432949947220    -2.244962738804
H     -1.983181430271     2.139965333815    -1.879258246508
N      2.354992491290    -0.240289478230    -1.235720427556
C      3.451825663126    -0.988841341302    -1.574613641277
C      3.512358887863    -1.603304427507    -2.809796853119
C      2.469592077793    -1.481468147123    -3.706013933357
C      1.385043463990    -0.727875935939    -3.339155426243
C      1.372291868263    -0.121642522534    -2.070536258327
H      4.272510512785    -1.093688605877    -0.874264278911
H      4.376820794549    -2.193168163721    -3.069799164677
H      2.505994907923    -1.971617019409    -4.675601031446
H      0.531410674575    -0.599715497227    -3.975828424296
O      0.272982074187     0.588584927385    -1.787595047954
H      0.382616263788     0.988951817887    -0.865352418852

