# STO-3G

title

0 1
C      0.225262494756     3.664926629886     0.110137120636
C     -0.789679483066     3.048014606714    -0.663866389053
C     -1.666117795707     3.819113158728    -1.446424955823
C     -1.550288881789     5.223119530082    -1.476185745740
C     -0.535803523414     5.847497642687    -0.725248769961
C      0.345652350710     5.074516155337     0.050619368695
H     -3.174154713129     0.611493941165    -0.303814497975
H     -0.861865540916     1.964233560242    -0.684876562530
H     -2.425265865160     3.326741652860    -2.051033008584
H     -2.226761418265     5.818024652642    -2.085332523023
H     -0.428437718572     6.929649505785    -0.748524994233
H      1.129771997847     5.565714947959     0.624404617847
C      1.182211118135     2.896328976363     0.949697293111
H      0.929943962146    -0.642228433160     0.347080791810
H      2.117744475960     3.419169380348     1.160067341241
C      0.861742155674     1.760818289059     1.714446983882
H     -0.142897825584     1.377046984341     1.769646711481
C      1.787747577065     1.179707119770     2.693427945486
O      3.010484565267     1.176721732432     2.378264076810
O      1.293174777472     0.308725713355     3.673597869664
C      2.271563816177    -0.379113232193     4.464663066900
H      1.751243893749    -1.019245234872     5.210041278817
H      2.903755514481    -1.038675027666     3.828116041645
H      2.915802298832     0.342211214084     5.016019807589
Pd     1.921810829940     1.179455480078    -0.209369282369
C     -0.983820645622    -0.991415761262    -0.071187897441
O      0.109371931730    -1.097168000206     0.731443875975
O     -0.933496007172    -0.762464659644    -1.298495538555
C     -2.297640277421    -1.016254550317     0.738562183604
H     -2.070597982069    -1.204708536131     1.789668766626
C     -3.294307911400    -2.029601561179     0.223423252626
H     -4.216661528403    -1.981856143829     0.838159840963
H     -3.553317417542    -1.793106448890    -0.829234833271
H     -2.865739826340    -3.050757513682     0.282903444280
N     -2.892525668885     0.320265728053     0.624498186099
C     -2.831842246818     1.213858539281     1.656325455189
O     -2.259591728055     0.995086243529     2.747859595063
C     -3.480064567629     2.525779092288     1.443344150443
H     -4.230541639988     2.657286009816     2.239635819627
H     -2.695063545916     3.297220678059     1.525285409279
H     -3.960371192951     2.574056878303     0.451181089590
N      2.603224163028    -0.266485815675    -1.566753251775
C      1.927345796676    -0.644101535871    -2.698079001031
C      2.477770852042    -1.592699746452    -3.538043532847
C      3.692104374001    -2.176628308677    -3.240871234597
C      4.340297209208    -1.783448512898    -2.097352753704
C      3.743212112596    -0.811190897454    -1.275505041606
H      0.978296700505    -0.182846170527    -2.944504001575
H      1.941121375670    -1.885089380491    -4.426470341650
H      4.122531260029    -2.930358787551    -3.895153607671
H      5.281612829850    -2.202168874896    -1.800528284853
O      4.423706788206    -0.502330251725    -0.172157878671
H      3.895956067654     0.186894477017     0.350471569029

