# STO-3G

title

0 1
C      0.761673278565     3.645248190965    -0.080079277860
C      1.895544115599     4.166920892699    -0.753975293747
C      1.759636062901     4.949091713619    -1.913208139530
C      0.478696758034     5.235118477578    -2.423456820549
C     -0.657272026621     4.731517395117    -1.758238376948
C     -0.519289680513     3.949095130072    -0.601489141449
H     -2.889348628782    -0.585607807887     0.742193684923
H      2.889574204861     3.957397119504    -0.358635947121
H      2.644862351041     5.340999143186    -2.409963684652
H      0.366015278079     5.840063165735    -3.320245093804
H     -1.650452648110     4.941311553851    -2.148713878189
H     -1.412512539977     3.561560021554    -0.119145755232
C      0.986513818674     2.828363890406     1.139351480832
H     -0.723461070967     0.907309030229    -0.531229436525
H      2.025258618563     2.849454383639     1.479477710564
C     -0.000995705799     2.401551623137     2.080473600701
H     -1.044800288244     2.611113874049     1.888240490416
C      0.316617637667     2.127201667630     3.488846840857
O      1.413564795417     1.564678627593     3.742601718057
O     -0.737841721453     2.100694375271     4.414573483934
C     -0.384137428579     1.741875564701     5.758307893741
H     -1.291841877137     1.775286056060     6.399641056618
H      0.030482408194     0.709007449590     5.800591251705
H      0.360611154205     2.456646751782     6.176935963555
Pd     0.735432371400     0.719648934079     0.872106649813
C     -1.886949478800    -0.220172582418    -1.776187404405
O     -1.350876950405     0.963369928084    -1.339840894421
O     -2.488358670703    -0.292161562262    -2.854846418384
C     -1.687584168604    -1.426499426033    -0.802399954578
H     -0.632128989950    -1.717925761821    -0.837161060727
C     -2.542393756404    -2.620868141303    -1.158333873727
H     -2.349509412274    -3.446000096919    -0.442113072655
H     -3.613246030751    -2.336284704195    -1.102451205546
H     -2.307404771033    -2.967620343211    -2.186101463178
N     -1.998476453039    -1.038869507442     0.578520377340
C     -1.115157251692    -1.147182936832     1.594337798439
O      0.051935761241    -1.628094950574     1.489443986396
C     -1.609165370076    -0.763669177296     2.926891917882
H     -2.444159978452    -1.441868686311     3.176295995402
H     -0.797149594044    -0.877764878245     3.666912594426
H     -1.976137859650     0.276302294813     2.891216663514
N      1.709505261452    -0.102012353656    -0.907432432379
C      1.890217336824     0.743825503558    -1.972021666020
C      2.779265059548     0.407996206648    -2.973425943642
C      3.477222775765    -0.779473256953    -2.924452763480
C      3.259053909800    -1.616766088456    -1.861105218847
C      2.339764154521    -1.235301068287    -0.863707876709
H      1.336534671557     1.672784491041    -2.028989732150
H      2.912880048579     1.080732798696    -3.805443842544
H      4.173296735611    -1.049649839205    -3.714225492463
H      3.753393119219    -2.563437080122    -1.768583631294
O      2.171469206399    -2.134070069244     0.099740345912
H      1.402445784510    -1.926893983919     0.717384758274

