# STO-3G

title

0 1
C      0.282135774233     4.108917436601     0.092354574129
C     -1.130557316619     3.992184723713     0.129709965198
C     -1.932262831369     4.802147840472    -0.692703452509
C     -1.349772498963     5.742968175581    -1.566315720111
C      0.052128237604     5.873655575142    -1.604754253584
C      0.855144536235     5.068819377152    -0.779474029078
H     -2.239551136124    -1.507264209228    -0.254050653481
H     -1.602466203430     3.281139341809     0.802290571150
H     -3.015136169217     4.708808749106    -0.644209397421
H     -1.976816591482     6.368021866608    -2.198073951600
H      0.514560981563     6.600263596949    -2.269145390068
H      1.938606271526     5.176429536120    -0.811658060716
C      1.186712103480     3.307512880411     0.954779764741
H      1.178123921452    -0.413707665193     0.741307727003
H      2.173146151565     3.753993142898     1.100481544523
C      0.800557188370     2.234017401901     1.774326793092
H     -0.224326818470     1.892757134268     1.797116528432
C      1.667463687253     1.684368295838     2.822408130393
O      2.898710515636     1.592551624275     2.561848011079
O      1.085919437562     0.971774569792     3.879930586143
C      1.984306846669     0.215508313584     4.703030986747
H      1.402338815070    -0.308472092240     5.491709822814
H      2.510636988674    -0.561219574786     4.102352585533
H      2.728908748960     0.879551714160     5.196181182766
Pd     1.875261790731     1.513788482785    -0.098449900914
C     -0.169888057814    -1.501247379878     1.827719573752
O      0.285697127966    -0.870453444477     0.702836329915
O      0.547171605712    -1.926765460222     2.745014948757
C     -1.719669520974    -1.577699534104     1.807462475458
H     -2.053238119361    -0.998872809901     2.677401818865
C     -2.231133627176    -2.994903621059     1.940339403002
H     -3.340048081983    -2.985069792634     1.977654301164
H     -1.907170222995    -3.587129550849     1.060821945042
H     -1.839049989875    -3.460236774622     2.868367668160
N     -2.307025353234    -0.986391379828     0.612807387319
C     -2.525013010071     0.352989091567     0.534365218794
O     -2.291233900960     1.169789257281     1.457941796831
C     -3.113884637176     0.829821389840    -0.734365687651
H     -4.080069763766     0.314456031907    -0.865363142183
H     -3.263370298557     1.920602087929    -0.671440021155
H     -2.428411939530     0.574809282415    -1.560227934691
N      2.369121971568     0.081761108942    -1.578787235315
C      3.614772743756    -0.434679015113    -1.821217636149
C      3.815408989927    -1.269005561191    -2.903192047557
C      2.767365912797    -1.601941645951    -3.737231171939
C      1.530292462733    -1.076644265091    -3.466384684969
C      1.375934202068    -0.231598773792    -2.352725497827
H      4.442021165013    -0.181048429848    -1.168184676850
H      4.797984998392    -1.672767997576    -3.088191718732
H      2.917696352947    -2.266502991538    -4.584181864243
H      0.667663689652    -1.304059750927    -4.061334907437
O      0.136628993486     0.220234262462    -2.147527876917
H      0.147473680687     0.787655141428    -1.309381936484

