# STO-3G

title

0 1
C      0.425344654762     3.982921405493     0.097258222603
C     -0.987940095532     4.005229357793     0.204286786033
C     -1.752083299393     4.838391400378    -0.630290634928
C     -1.129525880898     5.665108787201    -1.587754162175
C      0.274685144176     5.656612365039    -1.698653355775
C      1.040164658166     4.829403069918    -0.860008255481
H     -2.063127025631    -1.497932283146    -0.426187825371
H     -1.490092855651     3.373420828372     0.931219935493
H     -2.835205939196     4.850430064155    -0.527589345720
H     -1.726957206034     6.310599034351    -2.227772458274
H      0.767854551717     6.296470412851    -2.427161148885
H      2.126106565397     4.834021933115    -0.943895691361
C      1.295814984303     3.162825125073     0.975337843317
H      1.077144568912    -0.335787034806     1.347475761470
H      2.326002972526     3.520920001008     1.034262421560
C      0.865190849023     2.211577606450     1.918774212700
H     -0.184784643239     1.975549703238     2.022637059289
C      1.724173125319     1.748679848266     3.015580291230
O      2.938247695740     1.527652557259     2.753201470201
O      1.130037693029     1.284498526170     4.196445837204
C      1.972963058154     0.528066986372     5.075278656973
H      1.382721592127     0.213345780793     5.962912965825
H      2.338701073722    -0.394747010226     4.569970288939
H      2.836827312463     1.137412918335     5.423418223992
Pd     1.699244522147     1.257996871247     0.023834039258
C     -0.521966466754    -1.355390251988     2.238749593023
O      0.320998497164    -0.996184219462     1.196935787226
O     -0.162017435066    -1.445608774946     3.412633344647
C     -1.960358832082    -1.622958699811     1.718347709352
H     -2.623225556420    -1.195592887637     2.479074448944
C     -2.252946361119    -3.101900088826     1.589403925019
H     -3.307284392765    -3.243161288482     1.273470802786
H     -1.586278772422    -3.545271121469     0.821510258257
H     -2.092713611128    -3.611960382469     2.561929412462
N     -2.223243470952    -0.985330698024     0.434813049533
C     -2.345903684909     0.369322177268     0.365955409003
O     -2.258348939221     1.133605560878     1.355874509709
C     -2.612041542845     0.921024764454    -0.977484861756
H     -3.537545013314     0.452684158753    -1.352627393954
H     -2.740026048702     2.013038548841    -0.896937064944
H     -1.760646900554     0.673870548153    -1.633540306175
N      2.109178596905    -0.059578040210    -1.584315447883
C      3.224717484227     0.223689661282    -2.329685710777
C      3.389414116186    -0.347383926251    -3.574850109397
C      2.443757929795    -1.215392592071    -4.077303383309
C      1.349430670198    -1.497360887689    -3.303213102653
C      1.228598387656    -0.898101978222    -2.033588159594
H      3.969337180226     0.912004883653    -1.946553679813
H      4.265636203650    -0.112000591148    -4.157706972358
H      2.566439521583    -1.669433044277    -5.057331549964
H      0.582256702043    -2.175329928745    -3.622984386126
O      0.140480624824    -1.269695826695    -1.358071841741
H      0.152592841768    -1.030657616680    -0.371096624469

