# STO-3G

title

0 1
C      0.320510516252     3.913020248118    -0.169784488982
C      1.168985753683     4.310648342463    -1.233961488902
C      0.680100467260     5.064786511746    -2.312500777210
C     -0.673798452186     5.452965333797    -2.354385106496
C     -1.525210579981     5.092028395603    -1.292130817467
C     -1.035113210430     4.335487131296    -0.210149893674
H     -1.525761320044     0.125615648919     1.073241237613
H      2.217512352881     4.016805714807    -1.217124764845
H      1.351324765814     5.342914557014    -3.121200118146
H     -1.053965070314     6.032467309766    -3.191365718847
H     -2.564848449614     5.411956584147    -1.297402292183
H     -1.689557624314     4.129096518842     0.633175811785
C      0.882916407411     3.135573557758     0.965786658025
H     -1.777240189645     2.343257358508    -0.876451783303
H      1.929225287096     3.356346050259     1.180237749938
C      0.105724966342     2.453397450888     1.931136960151
H     -0.969223843025     2.414118312702     1.822192251134
C      0.612345846515     2.102479974322     3.262367968807
O      1.798147884624     1.681599024321     3.328978278403
O     -0.315689003005     1.795106038660     4.268601557713
C      0.233710205988     1.348443103965     5.516614904045
H     -0.593625320608     1.160579932795     6.235416940795
H      0.799257167317     0.397897738490     5.387286513120
H      0.903215559479     2.122699359769     5.955631661429
Pd     1.113032593751     0.972997982565     0.643723088242
C     -1.707620733265     0.428665042960    -1.432601225345
O     -1.928252105144     1.438457750421    -0.509839543421
O     -1.621330781452     0.631515280475    -2.648589861375
C     -1.621777041378    -0.941168986183    -0.747672498889
H     -0.813342900462    -1.504074552921    -1.226675186812
C     -2.908881214065    -1.724663860751    -0.908237166827
H     -2.787695937678    -2.736457279472    -0.468684621178
H     -3.726365419900    -1.197040226216    -0.374899484508
H     -3.167596430943    -1.826435624178    -1.982847539003
N     -1.347687492565    -0.794847781158     0.682530043575
C     -0.669999509683    -1.749899060508     1.366184391650
O     -0.218242812315    -2.807884642259     0.863100624726
C     -0.486087184970    -1.494684118430     2.808551551058
H     -1.480670950789    -1.297603406864     3.246391167220
H     -0.038769666416    -2.393487338969     3.268592801615
H      0.177252776430    -0.628986365051     2.934579961927
N      2.040998744274    -0.467749192672    -0.648680122261
C      2.440046805886    -1.732612093971    -0.298661389626
C      3.078535011643    -2.532937661951    -1.225722710516
C      3.303495524368    -2.080684593167    -2.509154200958
C      2.893293260764    -0.812533559752    -2.830298213537
C      2.251729570272    -0.034909183263    -1.850459179993
H      2.277385252304    -2.093983912336     0.709623164652
H      3.381141903953    -3.528746610141    -0.943836436036
H      3.791967302657    -2.713081582052    -3.245963523545
H      3.025229342141    -0.398061555456    -3.810631911356
O      1.874384568362     1.183336994227    -2.251976676443
H      1.403676279293     1.638094092347    -1.489064024394

