# STO-3G

title

0 1
C      0.228153811522     3.703573417455     0.230626210962
C      0.538170243668     5.083003843165     0.163390939404
C     -0.194553972359     5.953053734072    -0.663355064640
C     -1.252330499817     5.458581095770    -1.449167953952
C     -1.561658071858     4.083448997131    -1.405821087960
C     -0.829736097327     3.216452752712    -0.579140396377
H     -2.410320663416     0.243927695868    -0.091474330742
H      1.353614805228     5.475244164761     0.768752063922
H      0.059967531706     7.009792067577    -0.695889621806
H     -1.817309282833     6.127692406823    -2.093323240273
H     -2.361861002337     3.689632272893    -2.028655806428
H     -1.050544839670     2.152145770676    -0.586085408210
C      1.012689576290     2.834924283758     1.144148701867
H      0.559017861747    -0.198531517841    -0.549902414560
H      1.882286140132     3.316049425346     1.593664971746
C      0.548262240621     1.622887366230     1.677911355899
H     -0.436701752749     1.263795364601     1.429062734971
C      1.224843939337     0.889575879483     2.753445467774
O      2.486130914244     0.906958065472     2.741779970572
O      0.521554155746    -0.139821102380     3.392973276201
C      1.295985112369    -1.035246998699     4.201258656069
H      0.618084610752    -1.784996027271     4.664351330674
H      2.038711966422    -1.585050470958     3.579691664426
H      1.817273026805    -0.486149895314     5.017355106877
Pd     2.046102210331     1.194907554917     0.058209751878
C     -0.541573236192    -1.461402014437     0.568090298596
O     -0.389063519176    -0.540336588500    -0.450231690790
O      0.353533425464    -2.233152504535     0.937211119643
C     -1.955035923830    -1.362556652170     1.181625224815
H     -1.858954697976    -1.445260709305     2.269810509147
C     -2.870944704341    -2.460033731067     0.686400271620
H     -3.852586257343    -2.377053750726     1.197160292241
H     -3.026227761619    -2.340894847002    -0.405413343603
H     -2.430441112583    -3.455809595355     0.899421524602
N     -2.565157589719    -0.072898247331     0.859162204670
C     -3.010781393281     0.767928765818     1.835859849401
O     -2.978836890240     0.517196806737     3.061946252569
C     -3.553478556968     2.070071932074     1.389441327886
H     -4.565148011498     2.169971292578     1.815834205025
H     -2.889703525659     2.857681864962     1.784196400262
H     -3.599968144337     2.122187753571     0.288096841072
N      2.972077135081     0.063309600662    -1.457416877672
C      3.847661615979    -0.971846992685    -1.259905169320
C      4.428537725127    -1.594699200427    -2.347012816496
C      4.122920711433    -1.195186607315    -3.632414085440
C      3.235192217314    -0.162613452145    -3.798254860849
C      2.671639501829     0.441444871569    -2.660775365570
H      4.087434317810    -1.294055481899    -0.252817139717
H      5.115922367063    -2.409951020921    -2.186371876920
H      4.570051393994    -1.689678192608    -4.491008501300
H      2.940788564240     0.189455637806    -4.767502074255
O      1.795445183801     1.419218515262    -2.907913122667
H      1.450822415230     1.778729142385    -2.029928648209

