# STO-3G

title

0 1
C     -0.533730396608    -1.317380684625    -1.357225706944
C     -1.798478856073    -0.956327052803    -1.863737698778
C     -2.053460859557    -1.027395941655    -3.248417731531
C     -1.045533017915    -1.468167682682    -4.130487601041
C      0.217367518973    -1.839733777036    -3.625380216631
C      0.471539513571    -1.761736852225    -2.241227987510
H     -0.316822274220    -1.257216608199    -0.291640875069
H     -2.582395638227    -0.638732854936    -1.180712613442
H     -3.033078972805    -0.755824594164    -3.636251636346
H     -1.244956974175    -1.529840515393    -5.198103804389
H      0.993594553202    -2.189692775927    -4.302423687145
H      1.445659995607    -2.043512092604    -1.846313167498
C      0.758132537958    -2.742946055547     1.434356750740
H      1.220641326096    -3.058160162797     0.502491186629
H     -0.321617094322    -2.822803809858     1.477998428881
C      1.493433260799    -2.632381324911     2.635948969004
H      0.963728872731    -2.587841110677     3.575946480292
C      2.941979710123    -2.869014909942     2.737101102417
O      3.649266966455    -2.647741019960     1.719766528561
O      3.514088815511    -2.961035982996     4.014424264799
C      4.942942569512    -3.088029155386     4.054982484644
H      5.275364551257    -3.171149639901     5.112758211935
H      5.276155825935    -4.003575566514     3.515086754971
H      5.435238977236    -2.194238166548     3.608263463874
Pd     1.257308423895    -0.659975740525     1.702303960194
C     -2.971926424579    -3.879895630619     1.559029370282
O     -2.780784638835    -3.077718980989     0.697356067167
O     -3.178670941943    -4.712575323971     2.388236624494
C      0.144509292306     2.017708603396    -1.462308651436
H     -0.853577953197     2.082194179403    -1.891633716907
C      1.293730392538     1.602506495317    -2.334821941633
H      1.889617442580     2.496747461720    -2.604408268269
H      1.927047489817     0.876288702152    -1.790560839080
H      0.902094421035     1.123426787151    -3.254646902721
N      0.410957425179     2.322466819892    -0.257411983417
C      1.386058269298     2.359376116405     0.664187244314
O      1.726836412264     1.404184503083     1.410840707464
C      1.996472557137     3.679519889515     0.897808621729
H      3.081269966499     3.586807472140     0.726256967388
H      1.555875397291     4.414391736121     0.199789898146
H      1.788302976656     3.972393704179     1.940849486246
N     -0.893195431739    -0.532062982672     4.623062952907
C     -0.574374854538     0.797249969964     4.705206634319
C     -0.744260812989     1.615884705924     3.601025612659
C     -1.251061395192     1.108795250668     2.419758383631
C     -1.512955122535    -0.236317686672     2.358608830720
C     -1.336634002650    -1.007128139109     3.522381197257
H     -0.196689906311     1.205474702709     5.635453330267
H     -0.512454795843     2.665736002013     3.676025152149
H     -1.436451940305     1.754683001405     1.564815774433
H     -1.971826336730    -0.696087881699     1.500879117213
O     -1.685276974581    -2.319441925360     3.384751968646
H     -1.502365290076    -2.792379289528     4.222101050447

