# STO-3G

title

0 1
C     -0.166862560794     2.115330103632    -1.619848922488
C      0.755092640897     3.141123658513    -1.935202841477
C      0.552660101552     3.973767894899    -3.055669955923
C     -0.572092195140     3.793960941417    -3.883807816477
C     -1.494298024418     2.772971727501    -3.581543669091
C     -1.295546535551     1.944579763036    -2.457366399687
H     -2.601581764090     3.571510776730     0.804696513262
H      1.640107073193     3.286494766528    -1.320104987788
H      1.275581539544     4.756323245924    -3.280204539354
H     -0.724945909794     4.434519207654    -4.749544520131
H     -2.364507405243     2.618970908270    -4.217461903546
H     -2.023226767226     1.164294807379    -2.241855335633
C      1.086846432006     2.890754694578     2.034220929732
H      0.010290031557     2.858992105997     1.904369437130
H      1.613922985674     3.548611562048     1.345350160503
C      1.755137240706     2.158353756185     2.958373636402
H      2.834369348347     2.227196907023     3.035205301793
C      1.121908546881     1.240162593609     3.920212599986
O      1.853015865454     0.679850794789     4.779965780222
O     -0.282712835226     1.134885713935     3.976427725364
C     -0.793896329963     0.197004002390     4.934305949520
H     -1.901939740649     0.174176332166     4.876367414360
H     -0.413998458796    -0.829474425389     4.723222500674
H     -0.503262720112     0.489894741397     5.968463776712
Pd     0.173214811842     0.871148429465    -0.083827051211
C     -0.656215932393    -1.304936618609     1.665971696100
O      0.429845668294    -0.576093647799     1.467155284910
O     -0.803189579499    -2.273512262829     2.445849485146
C     -1.917657839957    -0.848497874739     0.794326386931
H     -2.815938040949    -1.096257008324     1.374413879728
C     -1.972664752945    -1.567126217173    -0.533043759311
H     -2.857863097715    -1.222271159404    -1.106164970615
H     -1.057118114829    -1.350705391273    -1.119995211887
H     -2.050168709760    -2.662177008936    -0.367972886103
N     -1.753285628108     0.585984866895     0.495896169839
C     -2.461804897818     1.565933477101     0.921527420219
O     -1.967510145200     2.830725619102     0.804169531868
C     -3.753414414498     1.361359226580     1.610880778179
H     -4.419718600386     0.794940230222     0.938555775115
H     -3.556919102895     0.815828718343     2.549307216815
H     -4.205921946070     2.339435663772     1.851996316932
N      4.095784396234    -0.314338304456    -0.145266447710
C      4.884422693189    -1.226951210033    -0.792920358327
C      4.612953037693    -1.558292950697    -2.111619266396
C      3.551755853349    -0.972919221186    -2.776008537676
C      2.777509921581    -0.067451459355    -2.093295625732
C      3.115879661122     0.215722607054    -0.754778625010
H      5.718937310714    -1.684114380237    -0.273964950346
H      5.239203375240    -2.274856064847    -2.617102818894
H      3.338634056187    -1.220112024366    -3.812660603569
H      1.955837631313     0.442956181351    -2.553562356954
O      2.298529294255     1.127971639972    -0.132625989767
H      2.540811975942     1.244635800674     0.816510355627

