# STO-3G

title

0 1
C      0.088433843851     2.817347652300    -1.253461785358
C      0.941180445763     3.913486319804    -1.011643193610
C      0.421745540955     5.224607913248    -1.047296049989
C     -0.939297757259     5.440613472214    -1.338233981625
C     -1.784056122232     4.340648682621    -1.585167713027
C     -1.275634019011     3.025337952539    -1.540001623441
H     -2.222434850872     0.433032037338     1.663079754497
H      1.990558587872     3.749388051124    -0.774916506339
H      1.080044373319     6.068053834439    -0.849274771559
H     -1.336566425260     6.452435478245    -1.372938469176
H     -2.835976694174     4.500971832886    -1.813394066976
H     -1.936349305873     2.181727375416    -1.723047419752
C      0.964596411527    -1.315808723141     2.839579776570
H      0.350200330825    -0.953737864642     3.658439276376
H      1.061779737477    -2.395410897266     2.762211364920
C      1.553915334429    -0.504632715908     1.934231610961
H      2.124602126054    -0.921165894227     1.112210426865
C      1.419526340197     0.957358916383     1.906625409888
O      1.883275056106     1.574749093338     0.909302488857
O      0.694352619443     1.626663555064     2.909667811012
C      0.353364348616     2.991004273976     2.624793048936
H     -0.211026901072     3.417057580110     3.481352249548
H      1.267291541613     3.607406142234     2.468397736122
H     -0.295629755003     3.053279063109     1.720578489340
Pd     0.786078557923     0.971131111637    -1.144449499939
C     -0.994046915446    -1.045097113419     0.075801828774
O     -0.869549974608     0.217884113008    -0.057117290775
O     -0.239174221889    -1.956523874743    -0.514271150241
C     -2.074935362193    -1.563745657544     1.020630407048
H     -1.712178454580    -2.462446663434     1.528041835667
C     -3.367675448625    -1.886158407534     0.302052361136
H     -4.099166340498    -2.291107241780     1.032009988705
H     -3.784987222197    -0.956730419319    -0.137230597396
H     -3.191718065069    -2.638683115485    -0.493825476938
N     -2.334081729424    -0.517537992427     2.003504388053
C     -2.387168753554    -0.803245056494     3.331671357969
O     -2.304753269451    -1.954216633858     3.818677287423
C     -2.544779512824     0.366366956143     4.219286714924
H     -2.581502174276     0.014580029058     5.264738301236
H     -1.675126847325     1.025557151264     4.060172435888
H     -3.481858964247     0.879991031422     3.944935078959
N      2.472498555298     0.941507005983    -2.312257379095
C      3.270422937665     1.734728339210    -3.083025366280
C      4.349720062606     1.174802597039    -3.741037243792
C      4.629077779219    -0.173892834401    -3.621268013928
C      3.810840000956    -0.949877869727    -2.837538739729
C      2.719152253174    -0.344304917154    -2.181544659893
H      3.054361352470     2.792504975528    -3.179273317902
H      4.979455399325     1.801890771113    -4.350464089464
H      5.479922409041    -0.611249646992    -4.136885099202
H      3.972880716645    -1.999100072701    -2.698125748481
O      1.942141519796    -1.080673779835    -1.431706525654
H      0.634847634609    -1.637966959893    -0.980012911061

