# STO-3G

title

0 1
C      0.037214297839     2.616839526595    -1.514041643085
C      0.727164488365     3.745100101275    -1.019451264052
C      0.164435025117     5.032290394830    -1.150347114802
C     -1.080017002931     5.202352817129    -1.787812583158
C     -1.762767459078     4.077391039743    -2.291156168669
C     -1.208740249223     2.787010049074    -2.155368045439
H     -1.945037290705     0.619020004911     1.802902858897
H      1.691409826108     3.623263103397    -0.529643628751
H      0.700549168325     5.895084100927    -0.759442835826
H     -1.509711929028     6.195982483933    -1.894536329950
H     -2.721848606554     4.200295110624    -2.791251320629
H     -1.746054154366     1.927241171940    -2.550250179171
C      0.870647387498    -1.657130500313     2.527923629939
H      0.357028662363    -1.342262487744     3.432198766794
H      0.907469106041    -2.730565669637     2.353320230538
C      1.445470885925    -0.801109434262     1.652337651933
H      1.919528595817    -1.161862532717     0.747496716171
C      1.437745607838     0.663838450450     1.787960614103
O      1.881960719858     1.358346069018     0.833765371720
O      0.920463599124     1.269787360142     2.948655467311
C      0.758570605573     2.694041770815     2.882356852742
H      0.340459604360     3.064386670699     3.842368010482
H      1.737015698907     3.197527124724     2.711952952421
H      0.051755599440     2.970542347680     2.065476053165
Pd     0.789193692134     0.797090667595    -1.282796864786
C     -1.304500911480    -0.966915928173    -0.006345189625
O     -0.935886404132     0.215923528638    -0.156146505993
O     -0.861076323495    -1.923309505523    -0.857400526920
C     -2.273241603033    -1.347483551554     1.112012280447
H     -1.971641491346    -2.294285022408     1.580257405041
C     -3.695834419957    -1.484939512018     0.607009930341
H     -4.352928250418    -1.804934758273     1.442978009444
H     -4.050473321475    -0.497771336956     0.242178515610
H     -3.755849123691    -2.233622136375    -0.208922875777
N     -2.236416591340    -0.300901154334     2.120138230399
C     -2.341717461142    -0.631066699848     3.435682829034
O     -2.501489184480    -1.800904332683     3.854004256068
C     -2.266898292935     0.495000999811     4.384872962782
H     -2.391528314411     0.103439594126     5.409201957373
H     -1.278324825836     0.965600951015     4.267517877957
H     -3.072056687387     1.207105647494     4.135894387303
N      2.519252814677     1.018048459111    -2.288182593815
C      3.204744487594     1.955377413486    -2.999767024674
C      4.456569331925     1.644536355079    -3.497601329170
C      5.016942268314     0.399451499759    -3.277967967918
C      4.308313822157    -0.528837994844    -2.555958869117
C      3.033296106329    -0.182550748477    -2.054302794923
H      2.767558346634     2.931286381494    -3.176285695670
H      4.998177324263     2.385668693415    -4.060931208107
H      6.001606260348     0.159704829428    -3.669738992865
H      4.683049078465    -1.508666388537    -2.345703569510
O      2.350678817228    -1.044029885429    -1.368533486550
H     -0.997640599907    -2.842626182178    -0.547994470726

