# STO-3G

title

0 1
C      0.215670427420     3.225716095820     0.042050964489
C      1.583167496163     3.416359149475    -0.245874169682
C      2.060346002794     4.708043151183    -0.547797788318
C      1.178921330484     5.807141578927    -0.571300834151
C     -0.185391487761     5.610402099710    -0.286614708213
C     -0.671439220186     4.321271134707     0.023164370316
H     -0.840773204098    -0.961905287740     1.702419278025
H      2.270550613666     2.573364271282    -0.230732583160
H      3.117444135173     4.848888007220    -0.764881741500
H      1.550825281712     6.801486282608    -0.807070193453
H     -0.873272552634     6.453551203952    -0.297947125383
H     -1.727517946815     4.189794693969     0.249985868309
C     -1.319590115696     1.828283889455     2.486167027145
H     -1.711012788521     2.839072550451     2.531700239269
H     -2.047078295284     1.022971230188     2.497966568279
C      0.038196969237     1.560429336257     2.678530801463
H      0.399692497492     0.541227963327     2.765938030868
C      1.035558452391     2.595376833417     3.007562069943
O      2.239771154616     2.262762090080     3.157930812731
O      0.622327807374     3.933243199859     3.148094628546
C      1.670574933528     4.895865396359     3.322918117374
H      1.227493772374     5.911042183382     3.405535018643
H      2.249090340459     4.687987661693     4.251427611916
H      2.359039553388     4.890452594821     2.447572590637
Pd    -0.487223050615     1.409573136246     0.432642690255
C      0.595412604222    -2.564207165114     1.389215452008
O      1.595534359681    -2.523645717949     0.548609885106
O      0.409932572299    -1.702699583748     2.327454245312
C     -0.585393951896    -3.536813287214     1.078531287670
H     -1.094156000648    -3.753985546211     2.028214725747
C     -0.158202284822    -4.831871746649     0.433251532457
H     -1.043352111056    -5.486822420573     0.296742993139
H      0.280425752205    -4.615696665186    -0.562669984648
H      0.590461900021    -5.349296538909     1.067110473893
N     -1.541401794970    -2.899283386951     0.149665513878
C     -1.865051326751    -1.666642266772     0.120094173862
O     -1.453702799739    -0.624183801729     0.959456064869
C     -2.830257035460    -1.237934627996    -0.895687507200
H     -3.126365058976    -2.113276087246    -1.503536119449
H     -3.706815108105    -0.823606211378    -0.372744336726
H     -2.346803544521    -0.481634690933    -1.533406791256
N      0.157921176706     0.858315677611    -1.473688728072
C     -0.328556549603     1.255714298567    -2.687629175730
C      0.164711463935     0.686715539847    -3.844057188860
C      1.163739685004    -0.263009689133    -3.788822105510
C      1.666759088160    -0.612910060433    -2.562548627045
C      1.144359601560    -0.003524674768    -1.399143231509
H     -1.122567542919     1.991688153704    -2.736581942347
H     -0.234457328160     0.991341857720    -4.797502202995
H      1.555104901384    -0.711604605365    -4.698063440334
H      2.464439961402    -1.320115273120    -2.454648724774
O      1.689109968462    -0.300136010715    -0.253256722127
H      1.837242507024    -1.399842621948     0.162021063454

