# STO-3G

title

0 1
C      0.096064798611     3.985054869493     0.854688095383
C     -1.272150713231     3.842357780489     1.190206069135
C     -2.225984192671     4.736416024421     0.680689543108
C     -1.837951552192     5.788794404267    -0.174060138662
C     -0.479684921211     5.943319433288    -0.511942663540
C      0.475467957106     5.051115039835     0.003432263771
H     -2.562631767059    -1.405910738111    -1.126028576057
H     -1.591599784128     3.035747066709     1.842611998045
H     -3.272623369823     4.616809363445     0.951637821180
H     -2.581845989132     6.480569229692    -0.562855101602
H     -0.168277614097     6.756391152833    -1.163550065904
H      1.526225433539     5.177284146166    -0.254149122113
C      1.158592868544     3.103551519435     1.393189169025
H      2.816585705325     1.326544508417     0.188292497414
H      2.168271949732     3.492235273690     1.267096699119
C      0.967231577818     1.992050846490     2.224141526412
H     -0.021709992107     1.644741914638     2.478989876805
C      2.038698818747     1.367322287704     3.014631118487
O      3.222910216648     1.436838621654     2.582893913217
O      1.707619535835     0.544927196184     4.102101212912
C      2.799192079933    -0.126176900887     4.745099502733
H      2.406086871794    -0.735020083270     5.587818786903
H      3.314362848170    -0.811886280898     4.035266501352
H      3.529094321764     0.607316276203     5.155827712244
Pd     1.298485771164     1.266859252442     0.076506736444
C     -1.156055103800    -0.670043765701     1.923999242838
O      0.109590103445    -0.918064643013     1.580213161692
O     -1.479339224221    -0.073118170041     2.973584922051
C     -2.300630033545    -1.198536304827     0.990991734659
H     -3.223391364104    -0.779477004782     1.409797527610
C     -2.382667279450    -2.712495288123     1.028683454227
H     -3.291094466385    -3.052081219531     0.489660725557
H     -1.488396648434    -3.142500933295     0.530645091089
H     -2.434014654586    -3.070744212099     2.077818239117
N     -2.169456925750    -0.792987113373    -0.422147270073
C     -1.539971246288     0.309659875105    -0.853830788730
O     -0.952334305105     1.139472354855    -0.104238480560
C     -1.571304007450     0.555496401322    -2.309887599346
H     -2.628757726697     0.645824525642    -2.610870000109
H     -1.031744642547     1.493944105755    -2.523222019077
H     -1.093308635111    -0.298155370593    -2.820504703231
N      1.667106759009     0.112226027201    -1.598687989480
C      2.291346500208     0.661984692055    -2.684543183431
C      2.628570488722    -0.128197900667    -3.760376217381
C      2.342481632632    -1.474950697490    -3.759150284273
C      1.719774112361    -2.007773180968    -2.662642690645
C      1.387177898036    -1.181643309359    -1.562875381080
H      2.513322708327     1.722833344074    -2.699596685988
H      3.116914983506     0.314779544854    -4.613536334907
H      2.603674752624    -2.100513420059    -4.608847043677
H      1.467848475328    -3.048236116966    -2.602696008831
O      0.794925474114    -1.781582388709    -0.587368896457
H      0.392989088159    -1.304588243593     0.595888526765

