# STO-3G

title

0 1
C      0.059993347631     3.293710766622    -0.650736364937
C      1.201789555749     4.126921921487    -0.612682392925
C      1.516771501476     4.970929012679    -1.694244699522
C      0.686697289214     5.000800634731    -2.833137254716
C     -0.458148660610     4.181531339791    -2.877973580245
C     -0.766312657386     3.334488529823    -1.795231803124
H     -2.388571292765     0.459298139538     1.362475586770
H      1.838008246402     4.130153584351     0.272682425114
H      2.393041243915     5.613961957005    -1.641305600679
H      0.920177634098     5.663272653480    -3.663502550260
H     -1.112330592354     4.207559965747    -3.746700608510
H     -1.653470978862     2.705106468069    -1.836525779333
C     -0.269325896363     2.377712072208     0.513954880544
H     -0.229850144080     2.953073364611     1.455249925468
H     -1.289955177741     1.997700686907     0.412555532983
C      0.711744772054     1.196531908136     0.651037128578
H      1.737488235393     1.555468378858     0.572493592290
C      0.609590927722     0.335569498071     1.844742128990
O      0.692073877412     0.871137211067     2.980398370471
O      0.889628423867    -1.029004932971     1.667913903232
C      0.889383621822    -1.823418166728     2.863918922534
H      1.081057021771    -2.887277189428     2.604955218402
H      1.687481894009    -1.487857050350     3.564828306584
H     -0.096101515689    -1.768654894920     3.381496020700
Pd     0.451360885516    -0.007556551980    -1.006213655735
C     -1.717786482556    -1.600512318399     0.092909407492
O     -1.399193739083    -0.345520066248    -0.278176824847
O     -1.316018964458    -2.643277140528    -0.474074346645
C     -2.629067614735    -1.621592736062     1.346060197399
H     -2.259312854773    -2.390120839645     2.032752891615
C     -4.070352012873    -1.932940258232     1.003416078514
H     -4.666784457498    -1.991477186952     1.937655044834
H     -4.479848575916    -1.120445152770     0.369164771143
H     -4.138334310080    -2.901712395527     0.466665055349
N     -2.581764645710    -0.309781313043     1.996751237501
C     -2.620609846954    -0.163696410072     3.344799636685
O     -2.666676120263    -1.109531757492     4.168002376822
C     -2.624699800726     1.233769335848     3.826864524823
H     -2.676307098752     1.224412458240     4.929549217966
H     -1.692002276422     1.715012912061     3.493417420991
H     -3.505849037606     1.742007304118     3.399827519988
N      2.312861930163     0.495520659828    -1.711623314860
C      2.479348205265     1.565191113534    -2.552522278534
C      3.748803883585     1.932106325058    -2.951967650406
C      4.852914279257     1.230651444140    -2.515122294729
C      4.653951037285     0.162346790224    -1.678288059691
C      3.342952428274    -0.173192774219    -1.295567593150
H      1.617144691398     2.112136487675    -2.911030417070
H      3.870859750230     2.778309243481    -3.608940653973
H      5.854309141079     1.517372036184    -2.825838239037
H      5.467177358712    -0.424911649717    -1.298868163162
O      3.251498952048    -1.209416433979    -0.465987078236
H      2.302862545561    -1.401151181467    -0.231390817947

