# STO-3G

title

0 1
C     -0.180865668526     3.452259666977     0.893928211700
C      0.384484918818     4.311965053593     1.863130537568
C      0.557504422483     5.684345555424     1.599431916473
C      0.164468038519     6.216124707119     0.356447983837
C     -0.402249571721     5.366170681268    -0.614177270786
C     -0.574281012914     3.994484696189    -0.351223671820
H     -3.891745774812     0.284050303804     0.866235996793
H      0.688195708617     3.908359097226     2.829107994071
H      0.990523662013     6.332896096708     2.358516603002
H      0.292283752182     7.276592055248     0.149636113343
H     -0.715188125094     5.769822690243    -1.574675295695
H     -1.003222915953     3.339135613744    -1.105566178437
C     -0.310257539877     1.965835838301     1.183007917936
H     -0.361540259051     1.807489238668     2.270555318340
H     -1.249607260949     1.585467071529     0.781043813687
C      0.858879662353     1.074378203512     0.678688664688
H      1.032731656343     0.278019901620     1.402634303289
C      2.128691563921     1.724599878483     0.298042816089
O      3.152869693093     1.488122949221     0.990470660239
O      2.257735154540     2.117661520737    -1.043568491866
C      3.446096743123     2.858079199600    -1.352650155696
H      3.431090186496     3.147084414518    -2.425653327139
H      3.493952593182     3.792712800573    -0.747644819412
H      4.359037183465     2.247518044397    -1.166929487154
Pd     0.377304075557     0.026518751801    -1.051983826540
C     -2.526004264410     0.771401321499    -1.380628269503
O     -1.267743006955     1.103424966818    -1.635241226107
O     -3.523093775545     1.509891061504    -1.590089543914
C     -2.749499435521    -0.611365818978    -0.660031267868
H     -1.832107134825    -1.204914525647    -0.671846473503
C     -3.883007477389    -1.413325725344    -1.259398657816
H     -4.001800756490    -2.364894168275    -0.701240540389
H     -4.827320357392    -0.833926552252    -1.180678870222
H     -3.674882312789    -1.633848610187    -2.326151759043
N     -3.089671607295    -0.324616380133     0.742012206403
C     -2.312715306264    -0.670470957518     1.778822208710
O     -1.208148174378    -1.270522323192     1.691124716101
C     -2.787046047306    -0.316328610325     3.131889836498
H     -2.881209333448    -1.252812224388     3.707161423995
H     -2.033761026397     0.341226225432     3.594764013639
H     -3.764455504974     0.197082536609     3.089218579669
N      1.959844301709    -1.198414245968    -0.658741322279
C      3.071889525278    -1.046803074999    -1.446877697274
C      4.146784191100    -1.895931697436    -1.298789846552
C      4.123578031442    -2.893954144984    -0.351214742406
C      3.004790341081    -3.022374272925     0.427771491167
C      1.922396186068    -2.134832558184     0.251810705503
H      3.100219353630    -0.264212819984    -2.196227966617
H      5.016396050231    -1.767364911746    -1.922647111177
H      4.971666906395    -3.561688856043    -0.223527620888
H      2.929334719341    -3.774353412339     1.188675475325
O      0.929131313287    -2.366847487832     1.077169881381
H      0.069343098139    -1.813122183898     1.141337223680

