# STO-3G

title

0 1
C      0.097209577545     2.885458187310    -0.594526081914
C      1.181469604789     3.792896380219    -0.601881759809
C      1.409808169584     4.636211358694    -1.705880941354
C      0.545580369362     4.591176863409    -2.818639565980
C     -0.541191774747     3.694474123687    -2.816986673408
C     -0.763023491908     2.843463157191    -1.715572207773
H     -3.183471590892     0.933968012075     1.511783172346
H      1.841067250303     3.853364594192     0.264368293483
H      2.244198069988     5.334786077767    -1.690401464128
H      0.709898686231     5.254107355024    -3.665355701454
H     -1.217979498935     3.658560762034    -3.668036608585
H     -1.586026717168     2.132473850412    -1.725983359569
C     -0.154487984723     1.991881884206     0.607252865875
H     -0.134729318494     2.607528908086     1.525073230243
H     -1.156802085623     1.564387862198     0.546022143566
C      0.890889242369     0.873308801360     0.801075006668
H      1.895446299046     1.285381192542     0.703637887157
C      0.831776511422     0.056615106648     2.030322687968
O      0.637799334354     0.638247714805     3.128904880104
O      1.455256328916    -1.200234228114     1.982989114044
C      1.357641114967    -1.977327015445     3.185890389425
H      1.857155865122    -2.958626559081     3.038366131323
H      1.854725392686    -1.460213424723     4.038277546139
H      0.291026298547    -2.170586986599     3.447287568736
Pd     0.779892212565    -0.445449819864    -0.793258435183
C     -2.055354518622    -0.790833395769    -0.161304353845
O     -0.845452139919    -1.292429157731     0.054829638538
O     -2.356280189960     0.016766958577    -1.088302935233
C     -3.040536103819    -1.117965928890     0.989414588651
H     -2.700748777516    -2.004143353553     1.528750494080
C     -4.474570872076    -1.284085950296     0.539142331954
H     -5.113583742815    -1.497383475583     1.420678965461
H     -4.824466048042    -0.344663337013     0.063177936113
H     -4.553236500446    -2.120843129637    -0.184118619009
N     -2.968901346845     0.026364644496     1.908781431273
C     -2.520682144691    -0.108490093141     3.191379496499
O     -2.125236906438    -1.187135539910     3.690222783073
C     -2.539396205457     1.108497168693     4.034742381553
H     -3.197790577572     0.903101073312     4.894329392907
H     -1.507643150911     1.285637547654     4.381261066750
H     -2.908119458291     1.980522729771     3.468212119035
N      2.461793134516     0.383300656728    -1.643624283337
C      2.359643174124     1.324339167479    -2.635179675280
C      3.501570149242     1.908536231981    -3.146626178601
C      4.745445616027     1.560308704728    -2.664483916784
C      4.816032793050     0.614015089309    -1.674123726035
C      3.626369034216     0.044327987990    -1.186871723754
H      1.388372364754     1.592817989708    -3.029319062605
H      3.409765839200     2.653126460719    -3.920897711300
H      5.645886958076     2.023596608082    -3.059420155188
H      5.749621336141     0.298159544316    -1.251662144296
O      3.790744576927    -0.849249134041    -0.212861746012
H      2.910626922077    -1.213242832552     0.080682810560

