# STO-3G

title

0 1
C      0.053029987561     3.242833994812    -0.314593607063
C      1.099007182413     4.194374081297    -0.306736081551
C      1.275321485820     5.086305602481    -1.381375197003
C      0.400664917840     5.043678094100    -2.485689961787
C     -0.649730066425     4.105016184160    -2.501584229468
C     -0.819847059441     3.212536592835    -1.425039145031
H     -3.754578438850     0.373200856004     1.125722858500
H      1.770505233024     4.245988961580     0.550634470927
H      2.079221959840     5.819316102617    -1.351115129902
H      0.527766079612     5.739058070320    -3.312525920616
H     -1.336517487611     4.071829023429    -3.344909791353
H     -1.630028751689     2.485876905101    -1.443367194697
C     -0.101363965608     2.253697401127     0.826927582104
H      0.010125230229     2.771666097708     1.793062443276
H     -1.088836259226     1.789372620861     0.808109796094
C      0.972110379946     1.152746261092     0.767706863718
H      1.942776172828     1.604857037905     0.563167171091
C      1.108506147950     0.216786710137     1.899121055634
O      1.921473699283     0.526762655121     2.808296021165
O      0.888677726220    -1.134791149504     1.589588208283
C      1.053490109723    -2.049805801215     2.682000559022
H      0.809710415491    -3.079682245646     2.342336161597
H      2.104117239419    -2.044384279650     3.052261279042
H      0.365995269660    -1.791020310347     3.520708937376
Pd     0.520534265748     0.009689655041    -0.900528152960
C     -1.737120162546    -1.472113652234     0.194524271568
O     -1.341123964931    -0.244406288681    -0.146779304511
O     -1.329117477353    -2.544461844624    -0.321977420587
C     -2.743387721080    -1.467441566618     1.383832402655
H     -2.205482475198    -1.913162339050     2.229175692185
C     -3.985089866556    -2.286888576152     1.107227340505
H     -4.634146372714    -2.289779719821     2.007278826982
H     -4.544856436090    -1.834680211015     0.263872073595
H     -3.709328361729    -3.331492531267     0.854004735259
N     -3.162323468587    -0.125292280345     1.778426461229
C     -2.503292415231     0.569313115628     2.745061808575
O     -1.482608818482     0.160238587881     3.349208355125
C     -3.064936622399     1.888931317873     3.116639760852
H     -3.314578055180     1.847152060817     4.189948435112
H     -2.290485542381     2.650920846454     2.938132727402
H     -3.971952913841     2.112347184354     2.527935475206
N      2.368820507639     0.435671873894    -1.668575322421
C      2.585508877008     1.573225446906    -2.401716981703
C      3.856389282869     1.860386285927    -2.858089708079
C      4.909704011952     1.012238148458    -2.583817765895
C      4.659869291544    -0.117758056359    -1.847112261306
C      3.350753089839    -0.366211998694    -1.397976181164
H      1.761723842662     2.239961588216    -2.625592694653
H      4.021410336712     2.758721056391    -3.431037804214
H      5.912176168977     1.235574103890    -2.939713384353
H      5.432701761559    -0.815210721788    -1.589778359041
O      3.203769459646    -1.469939388585    -0.668714672851
H      2.257263086601    -1.573968784284    -0.368412188316

