# STO-3G

title

0 1
C      0.608236078555     4.251162793694     0.267767266815
C      1.566528992947     3.703270683475    -0.616851216360
C      2.740238807958     4.402920203374    -0.946274676824
C      2.976973887138     5.680799225486    -0.402597055557
C      2.029019391932     6.244731167886     0.471941131948
C      0.858710363902     5.534172358305     0.802621898834
H     -3.369809083214    -0.406270440442     1.590324103484
H      1.381198443954     2.722110171546    -1.061023224348
H      3.464680057443     3.958543680651    -1.625659363990
H      3.882016180140     6.227137820591    -0.657952386342
H      2.200476915395     7.232178091882     0.895491193770
H      0.134242696840     5.980654021042     1.481762225549
C     -0.644009517715     3.482621995535     0.645677972163
H     -1.281647695574     4.104195795861     1.291908514186
H     -1.250641108996     3.255329346072    -0.244042795787
C     -0.410188841621     2.127167531466     1.331139418599
H     -1.362082421245     1.761781987246     1.715264542900
C      0.664347538751     1.984530017831     2.336893078405
O      0.334229100694     1.749717097728     3.528379331154
O      1.904091998889     1.551396298954     1.839672524889
C      2.889735999855     1.213239205957     2.825240058069
H      3.831553347377     0.912665664570     2.317140203405
H      3.112515259037     2.087103063028     3.478963642906
H      2.547411941210     0.357362510711     3.451292827307
Pd     0.225249286132     0.796532592386    -0.083287555885
C     -2.660670755081     0.296667055523    -0.994045496293
O     -1.635916895021     1.148366666141    -0.974512220901
O     -3.757757657184     0.544324489512    -1.552757800608
C     -2.434239153799    -1.048456237478    -0.203433348151
H     -1.439859968902    -1.431156171045    -0.438350218085
C     -3.460590796244    -2.113432017744    -0.520873227148
H     -3.239733357349    -3.031587598659     0.061654416675
H     -4.471376352652    -1.746416015252    -0.245998442950
H     -3.440146971586    -2.351858652347    -1.604164356691
N     -2.495605961160    -0.788093819724     1.246095835000
C     -1.469556761800    -0.945938726097     2.095060641614
O     -0.288657423155    -1.268607815428     1.773444500911
C     -1.765786451564    -0.713901828386     3.520390273937
H     -2.535549994929    -1.440716596856     3.830544538343
H     -0.841210694300    -0.853491497560     4.108979029432
H     -2.135681638541     0.318626355171     3.645134280638
N      0.942910709383    -0.591871611653    -1.578372246062
C      1.100664707385    -0.136551312404    -2.860332712376
C      1.586382324627    -0.982514176540    -3.836433372896
C      1.910505373822    -2.287829388607    -3.534163631279
C      1.727440851753    -2.720464247678    -2.246489126484
C      1.221208378270    -1.825326926040    -1.281825521108
H      0.851322899614     0.890209177708    -3.103391597870
H      1.710309895896    -0.615788986759    -4.842767104203
H      2.293467951966    -2.958629961219    -4.298885294954
H      1.945848007483    -3.726324579391    -1.946350590904
O      1.047066028426    -2.364137810676    -0.085655968306
H      0.538203173719    -1.834884038029     0.628938223377

