# STO-3G

title

0 1
C      0.030383672412     3.766044621624    -0.665312988733
C      1.129162893110     4.651731411873    -0.591962752909
C      1.498752681629     5.438389551394    -1.699287633677
C      0.768348891231     5.353620908490    -2.901214789087
C     -0.336368578243     4.483455880505    -2.981241817314
C     -0.700962059198     3.697757318878    -1.871048490444
H     -2.944728976607     0.243775303533     1.553573901215
H      1.690016928538     4.735553400631     0.338642741064
H      2.340878953184     6.123016853952    -1.621109743993
H      1.045935543711     5.966954932122    -3.755558544853
H     -0.915986090768     4.422504550925    -3.899896700132
H     -1.559805856808     3.031705173278    -1.939300051691
C     -0.313228975868     2.874306120672     0.514264172091
H     -0.240924248051     3.446876993944     1.454687960393
H     -1.346572640844     2.511003198636     0.454235153365
C      0.641319312364     1.668753722920     0.600852959501
H      1.672365982597     1.944896210441     0.397962261310
C      0.617472991716     0.793949750444     1.791573317306
O      0.051435412505     1.183782144541     2.845354407137
O      1.409443099470    -0.362732512833     1.766589975167
C      1.350106885141    -1.187238573925     2.939740109180
H      2.000842950344    -2.077206154230     2.799241264085
H      1.707321320184    -0.632075694663     3.836614198541
H      0.312489662288    -1.547443197951     3.123499502070
Pd     0.172352053599     0.537079877423    -1.060654117979
C     -1.406926944701    -1.316370175403     0.251830291508
O     -1.578223259780    -0.061562905007    -0.146516101019
O     -0.455737035559    -2.069578363815    -0.140440811047
C     -2.412275269590    -1.772036857731     1.325323930410
H     -1.927630432277    -2.498310884208     1.983228381491
C     -3.661719907964    -2.385745185198     0.733493842918
H     -4.327972090230    -2.721426533567     1.555120526513
H     -4.197495768026    -1.621551446374     0.133672916531
H     -3.400280522492    -3.255002782839     0.095834487551
N     -2.798963952468    -0.597269520650     2.105340654007
C     -2.590012289115    -0.534050417892     3.449431086084
O     -2.132986244549    -1.469685671318     4.148796258353
C     -2.983865540152     0.739579841576     4.087063636019
H     -2.780445805522     0.668613296117     5.169312161731
H     -2.379245432344     1.543096480142     3.635476491527
H     -4.058414676509     0.900570073372     3.897535880103
N      2.100325465128     0.511338767314    -1.716208007850
C      2.773214532519     1.548724751263    -2.304212647172
C      4.088436465116     1.383215827192    -2.683978805143
C      4.731407785982     0.180531566292    -2.481640725927
C      4.031699308976    -0.842449993371    -1.895354523765
C      2.690323879663    -0.638786747700    -1.513512636561
H      2.272226290270     2.496088242373    -2.467510643396
H      4.614106519653     2.204548798669    -3.143716514581
H      5.767797974240     0.046286315096    -2.780488638671
H      4.474912503513    -1.801265258677    -1.710065291091
O      2.125710476477    -1.698177234888    -0.962901662397
H      1.152160622552    -1.673960085516    -0.655222333455

