# STO-3G

title

0 1
C      0.847102741457     3.201618628359    -0.051124126278
C      1.780995538654     3.858649742505    -0.887343898149
C      1.362381294609     4.723916260829    -1.914451707733
C     -0.012045733281     4.949830919298    -2.125952806711
C     -0.949369133820     4.307509138720    -1.295080428571
C     -0.527814471053     3.444466066919    -0.263598548326
H     -2.506614945360    -1.753378265240    -0.023701306226
H      2.847685000064     3.687699022506    -0.734184849052
H      2.102872634529     5.216396629525    -2.541089285247
H     -0.342723429947     5.621173617384    -2.915070896144
H     -2.013385398411     4.483048251309    -1.437413526032
H     -1.282545330791     2.965369051866     0.352071132028
C      1.376105635002     2.334060585945     1.082836786512
H      2.397886121643     2.011588553187     0.845517898636
H      1.488875878842     2.997888720285     1.960369626055
C      0.532541303803     1.139271167001     1.548518080423
H     -0.534913478847     1.345021899707     1.533081510029
C      0.934808011743     0.499123943506     2.816914920857
O      0.067835174739     0.286353375667     3.702143790230
O      2.211209469714    -0.084596143186     2.877244093304
C      2.449349826774    -0.939394185345     4.005545866566
H      3.482749504324    -1.345229133741     3.954167274194
H      2.343676756747    -0.377066651293     4.961313709056
H      1.739788786671    -1.800524151976     4.005934081148
Pd     0.590306175504    -0.497434505598     0.230785879979
C     -1.127937465477    -2.172710236946     2.269508284205
O     -0.042300703438    -1.881806557682     1.545138127194
O     -1.175300947176    -3.136105346624     3.067534610313
C     -2.365187257081    -1.235809216153     2.031084823117
H     -2.191467312522    -0.276919479077     2.532064525536
C     -3.660035462975    -1.823042805182     2.549587963533
H     -4.493713511140    -1.116133407248     2.358804553741
H     -3.867278789678    -2.778259177151     2.026010300534
H     -3.584631259914    -2.008543126750     3.641164987672
N     -2.540894339791    -0.955763814602     0.599231582957
C     -2.708014907946     0.289350961540     0.100798020124
O     -2.641240034055     1.352752007728     0.766768753642
C     -2.972946383521     0.361335513872    -1.351254342402
H     -3.926906969621    -0.160114012196    -1.540603842693
H     -3.051139833262     1.423871761357    -1.643015749300
H     -2.148472545122    -0.134912691329    -1.888395748865
N      1.588188967666     0.445456846164    -1.317033022566
C      0.967823452842     1.059226568597    -2.373978833330
C      1.715132753732     1.504091041534    -3.446832682598
C      3.087430710022     1.373821659504    -3.447970403615
C      3.684176012466     0.779010201495    -2.366010184606
C      2.879485598959     0.323176125322    -1.306466284116
H     -0.107305217345     1.188980363764    -2.370250227882
H      1.218618966492     1.991863210772    -4.269735953881
H      3.681000040191     1.740860306775    -4.281122306254
H      4.746669987344     0.653642563458    -2.297169948674
O      3.549518169293    -0.221199346659    -0.290100774861
H      2.919792670952    -0.527713491306     0.424382643646

