# STO-3G

title

0 1
C      0.040195423914     3.501528809465     0.758055008854
C      0.343924079486     4.214001276833     1.940822896824
C      0.576489783514     5.601550955035     1.909354415036
C      0.508263959758     6.303209178242     0.689466924741
C      0.204547476971     5.605181530116    -0.495901414058
C     -0.026180423275     4.217177502167    -0.459166823337
H     -3.994363346292     0.293925323255     1.710140713585
H      0.398123867903     3.675623417272     2.886949171588
H      0.806272580505     6.132995174117     2.830586174452
H      0.685636664986     7.376028739997     0.663626436187
H      0.145862739267     6.140143292487    -1.441616676819
H     -0.261818286446     3.684455497232    -1.380149764642
C     -0.163134038952     1.996119757034     0.789249507955
H     -0.581911458554     1.662959484065     1.742133392827
H     -0.864920246527     1.702112629376     0.003559444518
C      1.151402573868     1.235304338078     0.498441952301
H      1.451424266243     1.398094931767    -0.535687000888
C      2.310943888644     1.401309736808     1.400036455423
O      2.132019243021     1.318970916284     2.642199749034
O      3.592400087917     1.226362430894     0.849450391894
C      4.686870683563     1.333328091380     1.771026500339
H      5.645175281862     1.205134028070     1.223069940901
H      4.697102170055     2.335466826882     2.257549862578
H      4.625889851428     0.544108457569     2.554835547125
Pd     0.700199184066    -0.773408276894     0.611517653451
C     -1.398206075400    -1.687035794167     1.860577969804
O     -0.745979161279    -0.568679639144     2.132397653153
O     -0.815432919789    -2.752783629767     1.480920774880
C     -2.947320562301    -1.543554104522     1.932778769325
H     -3.224594386993    -1.403947060886     2.985241669453
C     -3.691325272263    -2.735927037824     1.372499087188
H     -4.784347625644    -2.563005647507     1.452410040701
H     -3.424457149305    -2.870363854203     0.303965070998
H     -3.423715626875    -3.653222024378     1.936336144921
N     -3.388497020714    -0.337569814667     1.202586582847
C     -2.922914599170     0.048717639931     0.003056272116
O     -2.047560784650    -0.572769097471    -0.657844454441
C     -3.514623628684     1.282441329666    -0.553270479316
H     -4.600342395391     1.115510321223    -0.657928976087
H     -3.321291809723     2.107215442759     0.155110189842
H     -3.062179061373     1.497295704486    -1.538055079557
N      1.692042131031    -1.001042257862    -1.153997193107
C      3.009883400347    -1.374935860653    -1.162491363630
C      3.696821112981    -1.451230943831    -2.355625765297
C      3.068288001011    -1.154656083389    -3.544763602203
C      1.749473394255    -0.785067200935    -3.507732972875
C      1.076304391868    -0.724540922874    -2.269620720275
H      3.512710185974    -1.602844864157    -0.229568560383
H      4.734620267764    -1.742400822803    -2.353128983976
H      3.605080624107    -1.211231396572    -4.488158011495
H      1.203384342975    -0.542346381182    -4.397902029688
O     -0.182174206554    -0.342150268443    -2.374697169887
H     -0.845106044812    -0.412500213234    -1.598781004456

