# STO-3G

title

0 1
C      0.007679503343     3.405937185343     1.326183811656
C      0.478277940341     4.211855422323     2.386750265643
C      0.617730061882     5.604828272551     2.232844860533
C      0.288162669369     6.218113826192     1.009197032715
C     -0.179812645732     5.425790324076    -0.058179028779
C     -0.315417169994     4.035073752768     0.100526104577
H     -4.068907503157     0.512985097031     1.332811840989
H      0.733397430709     3.744916704712     3.336803682148
H      0.979027324820     6.207913308199     3.063245072888
H      0.393917465378     7.293821436477     0.888049891470
H     -0.434665087028     5.890711628273    -1.008447885974
H     -0.668247412691     3.434550899367    -0.737292530611
C     -0.119742885928     1.899068432172     1.490602616582
H     -0.022219165721     1.607675972855     2.539111111952
H     -1.110131170730     1.552663198725     1.189072846333
C      0.916883511492     1.153350963338     0.626676705046
H      0.727930930772     1.343233220731    -0.430875859001
C      2.345861639340     1.350418407950     0.932346138261
O      2.802310026818     0.787960680067     1.962448508618
O      3.201702388100     1.737527095146    -0.112480893843
C      4.595964018496     1.812721974894     0.213965231662
H      5.163737706915     2.148589936942    -0.680413917003
H      4.770957336253     2.546931939720     1.032923357466
H      4.987569944500     0.815730854811     0.517354956523
Pd     0.586727410291    -0.872812180753     0.850440832410
C     -1.726435738908    -1.716822289421     1.818333513133
O     -1.033022369216    -0.645845613641     2.174977931633
O     -1.204927490835    -2.847685867770     1.578702706958
C     -3.250877766438    -1.429459216820     1.634614829933
H     -3.687955132211    -1.294304255605     2.632162331618
C     -3.989650592775    -2.535558246179     0.912842566944
H     -5.060620252565    -2.263681370875     0.812274261633
H     -3.555622106044    -2.673518533148    -0.098821266699
H     -3.905585106638    -3.485234943979     1.480388123407
N     -3.464800237290    -0.169314676487     0.893338440662
C     -2.798228184790     0.185980735138    -0.217268229538
O     -1.903693880025    -0.513815090318    -0.763661184479
C     -3.179133568337     1.478214233247    -0.822295180597
H     -4.244478995039     1.413797420845    -1.102372327564
H     -3.031522803992     2.273964560125    -0.072068643752
H     -2.557357161814     1.662751717143    -1.716618469832
N      1.804219597791    -1.147387233497    -0.764928987123
C      3.089900881487    -1.582905256912    -0.579374228958
C      3.931819545465    -1.729753552260    -1.661379603888
C      3.489584351220    -1.444389138070    -2.934260205948
C      2.196438805694    -1.020651532901    -3.093557883465
C      1.362000886272    -0.886690805729    -1.964119849361
H      3.446907821627    -1.800314399708     0.420893179145
H      4.942896459384    -2.068727339981    -1.505645944140
H      4.148835300385    -1.555773240146    -3.791082103407
H      1.791081830809    -0.786354404536    -4.057827919760
O      0.145584056251    -0.468393589620    -2.255159311130
H     -0.615096888994    -0.468626857676    -1.567886979238

