# STO-3G

title

0 1
C      0.015523910505     3.745653403158     0.339383854379
C      0.772958331861     3.691190968830    -0.854336957575
C      1.461679258177     4.820357247455    -1.331743066061
C      1.397346248231     6.036045801002    -0.622530824904
C      0.638549677524     6.107711155925     0.561374940042
C     -0.045417119912     4.971561628994     1.036647142337
H     -2.752985966257     0.706747119518     0.560017173584
H      0.796505108609     2.759545967048    -1.425872992066
H      2.036832948385     4.758955014111    -2.253111437827
H      1.925139678299     6.913233842830    -0.989412333216
H      0.579202685435     7.044075385048     1.111903131249
H     -0.630160541015     5.037011999357     1.952057974160
C     -0.687888033432     2.511035847823     0.865068733364
H     -1.361697584954     2.748273694604     1.699890350473
H     -1.339250732913     2.096455940541     0.078876285311
C      0.236246406586     1.362488645183     1.296261321618
H     -0.338946934843     0.622726584688     1.848972220616
C      1.511474409633     1.661559327826     1.975968003236
O      2.539053943972     1.585385552284     1.250877128895
O      1.598003144252     1.409582112178     3.353909094390
C      2.892580523490     1.599547661169     3.941839489796
H      2.831491301553     1.404061873909     5.034368109728
H      3.635590484623     0.893419627137     3.506179082540
H      3.243945094851     2.646411110927     3.796370727670
Pd     1.006167175193     0.457362520948    -0.380957694312
C     -1.373569123888    -1.325021656434    -0.158740882993
O     -1.005533303245    -0.143557395737    -0.583788533722
O     -0.637243642217    -2.364972024170    -0.132522426698
C     -2.812406834353    -1.371703774104     0.426558282262
H     -2.864693624899    -2.235093856725     1.095065617123
C     -3.868200208060    -1.519737808552    -0.645730976019
H     -4.870608920185    -1.562912945990    -0.172292733003
H     -3.834578343557    -0.637504302592    -1.319142280622
H     -3.697019631232    -2.445548329620    -1.232723065304
N     -3.035147898436    -0.098433367500     1.117067813518
C     -3.165080402982     0.184031835920     2.441806081944
O     -3.028143002917     1.345462271800     2.900796401158
C     -3.507896526439    -0.928446050756     3.353560871304
H     -4.433220316121    -1.400510958748     2.982789405314
H     -2.663152820126    -1.634565636023     3.376701076580
H     -3.675121169514    -0.512803094314     4.364230976501
N      2.079858980359    -0.464444977277    -2.016297879338
C      2.842888869334     0.346412134070    -2.814078052672
C      3.706229894754    -0.203001304309    -3.738636032492
C      3.810129584996    -1.569368103574    -3.872481605113
C      3.031331636362    -2.360519175821    -3.070808354799
C      2.153264616333    -1.762633915773    -2.139741126430
H      2.773916380039     1.423233575058    -2.710152434280
H      4.305640236765     0.445371968526    -4.356864215190
H      4.490108177883    -2.008560023846    -4.597757100469
H      3.059221047435    -3.430532213135    -3.130622309895
O      1.454748415075    -2.634709442699    -1.451805247167
H      0.627865073804    -2.387862864122    -0.852437536758

