# STO-3G

title

0 1
C      0.330131936865     3.780819071798     0.023628150224
C      1.516408528345     4.541396836703    -0.100917653124
C      1.735419120264     5.357835301577    -1.225702965605
C      0.765345022609     5.429695134640    -2.245679269683
C     -0.426483757593     4.690035747818    -2.122429529794
C     -0.643719072675     3.874374214130    -0.994575926862
H     -2.254448229455     0.045130603242    -0.354580019703
H      2.266580848006     4.503578158648     0.688661822188
H      2.649119134812     5.943961112756    -1.302291376877
H      0.929354189328     6.064195626379    -3.113988497837
H     -1.189041154163     4.754598390278    -2.896004449438
H     -1.574600099013     3.320715237723    -0.890356106695
C      0.123343403197     2.865778912833     1.215587040479
H      0.311307389962     3.425157257370     2.147237170341
H     -0.928560617949     2.569163161887     1.269961398585
C      1.036028491983     1.625187905290     1.177084382651
H      2.003807614190     1.842521875969     0.738052778902
C      1.236941552546     0.827175853063     2.408109028429
O      0.220557963565     0.460305356798     3.050726791152
O      2.472971123008     0.187651178806     2.584978739051
C      2.555169865749    -0.738553432151     3.678006439317
H      3.580657364464    -1.166315086602     3.721336223304
H      2.349911100874    -0.230164699888     4.647404392519
H      1.838918883942    -1.580689883316     3.540263884372
Pd     0.113414750174     0.150476818375     0.060837129202
C     -1.430435689760    -2.505025209262     0.231384537918
O     -0.638724828515    -1.829122967333    -0.608905927179
O     -1.365865527257    -3.724402833712     0.482782669620
C     -2.520668062986    -1.623196209932     0.921145000971
H     -2.441400729312    -1.828049349682     1.994146280143
C     -3.910551292787    -2.000216134124     0.444698461257
H     -4.677667589991    -1.399686558651     0.972503634828
H     -3.993449399204    -1.799919035407    -0.644030386241
H     -4.103276074164    -3.077078468623     0.634734353224
N     -2.307706779656    -0.177683376600     0.643978318503
C     -2.821004700088     0.878852297102     1.376326965161
O     -2.952963177440     2.020306223131     0.885461124789
C     -3.156583662663     0.651533298439     2.798440870899
H     -3.994580656755    -0.059667062955     2.859305700336
H     -2.261565270759     0.266140470466     3.312569614712
H     -3.456447587204     1.616125033069     3.247563808709
N      1.668627662912     0.141717824990    -1.298090971170
C      2.170235620691     1.282167353010    -1.870064447541
C      3.288256801507     1.219120826489    -2.674815412886
C      3.898787517344     0.013174245121    -2.934544312355
C      3.348613572601    -1.121114099188    -2.400473253434
C      2.191435811333    -1.026272848074    -1.597633970963
H      1.698946695593     2.235296624864    -1.687512946858
H      3.679310869790     2.126604617706    -3.105628726426
H      4.779694525544    -0.040068538849    -3.568805191600
H      3.748371781260    -2.095387432782    -2.600499886882
O      1.698432615364    -2.176059269599    -1.218256800848
H      0.665758623584    -2.169012350050    -0.909171358762

