# STO-3G

title

0 1
C      0.496030518028     4.030253164067     0.214915846217
C      1.594164291892     4.671028772204     0.834541107627
C      2.692526640696     5.118611798146     0.076417332641
C      2.705202645181     4.945572467911    -1.321731673619
C      1.611033259482     4.322346137280    -1.952860928069
C      0.517879992204     3.864622306499    -1.191422425292
H     -3.420159207683    -0.428074765615     1.573381515799
H      1.589795071257     4.828564396719     1.912348849334
H      3.528482123035     5.608861545597     0.571160739447
H      3.548955673194     5.301907341660    -1.908702298209
H      1.602683941758     4.206391023201    -3.034765620879
H     -0.333535232777     3.392745598837    -1.676783297366
C     -0.693383014289     3.530014124036     1.022100224990
H     -0.957671936415     4.253928951572     1.808382746785
H     -1.564025353972     3.432682720481     0.365583830463
C     -0.482890763099     2.136891732915     1.641086106797
H     -1.441176900512     1.756434909339     1.994689568554
C      0.573881101263     1.933726511479     2.656098116567
O      0.229132418629     1.593856338290     3.817468062182
O      1.856383206699     1.636909563501     2.169582921507
C      2.813788886821     1.200994384000     3.144673447501
H      3.790177371830     1.017565138953     2.645730431776
H      2.964734928971     1.977581526001     3.928436823613
H      2.486855746704     0.248885697300     3.622558958695
Pd     0.228677446898     0.931690196010     0.155167901886
C     -2.618890350159     0.470013267044    -0.921194836362
O     -1.599183530934     1.317852623000    -0.806490104742
O     -3.698561359922     0.755863115659    -1.497174558588
C     -2.412522467839    -0.928744334171    -0.225966514347
H     -1.407640492143    -1.289109121573    -0.452553933893
C     -3.418985572059    -1.971454457009    -0.659868278266
H     -3.213284187648    -2.929544455922    -0.139435183290
H     -4.441854506910    -1.630252873348    -0.396824158963
H     -3.356515232614    -2.128384508311    -1.756359892509
N     -2.529831439354    -0.777158711727     1.235747368375
C     -1.534480589433    -0.986546518071     2.108791712454
O     -0.338044435041    -1.273821084848     1.808304785068
C     -1.885357465126    -0.863489004061     3.535359902377
H     -2.655119706082    -1.620613766962     3.761959071478
H     -0.980857458627    -1.036077348850     4.145987945949
H     -2.275425909526     0.151877801530     3.722310538721
N      1.128784267758    -0.296110920224    -1.374417695082
C      1.483489322169     0.312397110474    -2.548622949202
C      2.074730557784    -0.424531399568    -3.554999456679
C      2.310843291679    -1.772438779831    -3.389434136404
C      1.938671345543    -2.356277245957    -2.206487549335
C      1.334462495460    -1.566946269613    -1.206242035717
H      1.301753837716     1.371714950964    -2.684607077274
H      2.351833123952     0.062198724024    -4.475981393845
H      2.776099787966    -2.357868965963    -4.178167705035
H      2.086631740712    -3.400497259057    -2.014382128528
O      0.996305366725    -2.242547993432    -0.119416843293
H      0.479317380942    -1.765313836763     0.626172474558

