# STO-3G

title

0 1
C      2.003206227321     2.899836820404     0.539954159887
C      2.227641818370     4.239238916692     0.143793472832
C      3.014989998501     5.100090923721     0.930429004809
C      3.593338579656     4.634569946286     2.127515370521
C      3.379619035163     3.301252430819     2.526998955367
C      2.589200770051     2.441030330270     1.740998270174
H     -1.989374433815    -1.150741716374     2.883118509153
H      1.795768356496     4.615726962610    -0.782118940059
H      3.179533977423     6.127299049280     0.611312008845
H      4.203105298084     5.299260152367     2.735509158627
H      3.829887707808     2.930547935339     3.445532027001
H      2.424633231925     1.408740587128     2.041311459732
C      1.161673740647     1.945423560711    -0.306509637365
H      1.713993484434     1.656906113706    -1.209461042022
H      1.006367582224     1.018901726862     0.259355520913
C     -0.187116255633     2.552318255936    -0.737911443207
H     -0.097491097172     3.296106065344    -1.523053583201
C     -1.134796924403     3.003637537692     0.307717829148
O     -1.901887807912     3.954777423504     0.011869343501
O     -1.564700798206     1.994958987306     1.181836026381
C     -2.753203236040     2.265932293135     1.938887813428
H     -2.996292415787     1.381627411978     2.569730250321
H     -2.609334220280     3.146950112053     2.603941131004
H     -3.624182284761     2.441412966841     1.267283830154
Pd    -1.344994982015     0.942775871736    -1.285646722275
C     -2.474810276614    -1.278358617800     0.281992910396
O     -2.249448081544    -1.128279730038    -1.034988171614
O     -3.476809186273    -0.829424992751     0.887055218533
C     -1.336860696237    -1.999088200605     1.071908364549
H     -0.398900096765    -1.956991945206     0.512433684967
C     -1.672374853805    -3.441944244674     1.373312079677
H     -0.832923463070    -3.906152710419     1.931339158929
H     -2.584869766881    -3.484397719959     2.003722721057
H     -1.839822047677    -4.002803675700     0.430913657869
N     -1.145433004989    -1.298906366102     2.341097419100
C     -0.035267526257    -0.560373003903     2.586760867535
O      0.961467647869    -0.470371107256     1.823936077425
C     -0.028538674358     0.160577240495     3.876084358279
H     -0.155604575464    -0.584628067754     4.679172037189
H      0.934475740280     0.688054378580     3.983426527578
H     -0.862396827477     0.881429287560     3.873102458321
N     -0.102039909045     0.438437488964    -2.858270292051
C      0.399584301349     1.352465736080    -3.746799584326
C      1.315462191923     0.960917858448    -4.698697198287
C      1.728667697683    -0.350131251731    -4.777484129856
C      1.189194196204    -1.254982659723    -3.903012665117
C      0.243975050956    -0.829198819977    -2.945218812029
H      0.085097960811     2.387385499284    -3.698956629357
H      1.714990745950     1.690633510256    -5.384636872552
H      2.455294805087    -0.661679173060    -5.523513756356
H      1.456232473425    -2.293289022923    -3.925483626089
O     -0.230898400191    -1.779331556832    -2.191218597810
H     -1.153831232538    -1.558981853658    -1.592867164101

