# STO-3G

title

0 1
C      0.356945259151     3.851661655609    -0.545408315885
C      1.643267433025     4.403129766170    -0.746780833562
C      2.018218220190     4.925305554068    -1.999218447869
C      1.104905268503     4.909001320012    -3.072464059626
C     -0.183291755151     4.372776149395    -2.878479923970
C     -0.553863091025     3.847736684137    -1.625077696516
H     -1.184516799364    -1.771335712287    -0.328730498836
H      2.350235738749     4.438023689512     0.082450022247
H      3.008493647375     5.356740421334    -2.132994091298
H      1.387334981865     5.322015080751    -4.038542211481
H     -0.900686709559     4.370178048930    -3.696671426152
H     -1.547419111335     3.431098470805    -1.474356889779
C     -0.025212380998     3.244308502460     0.794082548178
H      0.242853796107     3.936181453718     1.610504668233
H     -1.103134693008     3.072608545866     0.856257906876
C      0.713091448583     1.917512786249     1.036675806687
H      1.753329237881     1.966404526351     0.724854470031
C      0.634791135800     1.258826381534     2.357505629803
O     -0.444373737226     1.277023144444     3.004723077567
O      1.800387943767     0.679588047130     2.883495523176
C      1.664653568628     0.021288377439     4.150077497572
H      2.652150630014    -0.383854219457     4.459530777734
H      1.316852285634     0.731842136126     4.933668032953
H      0.955702975722    -0.832976059692     4.077264046495
Pd    -0.124965936509     0.671803142678    -0.405895599231
C     -3.226939132134     0.572069070042     0.052507385002
O     -2.070781779515     1.223288078932     0.038471097186
O     -4.354852683815     1.115448327706     0.112997565539
C     -3.139950220592    -1.001307867990    -0.113577006573
H     -3.124666888339    -1.182546323324    -1.197487993080
C     -4.333792656715    -1.745963757085     0.448708450309
H     -4.130452693839    -2.837055088484     0.458289093338
H     -4.565919038281    -1.397116357142     1.472711930458
H     -5.224921306199    -1.553605772825    -0.184687282852
N     -1.877481549095    -1.580663618816     0.393516267757
C     -1.303965542492    -1.548501308930     1.612087604205
O     -0.058341684799    -1.718326232683     1.778355059952
C     -2.146555066121    -1.344673363128     2.801861848248
H     -2.848109435065    -2.190629369793     2.877188469342
H     -1.497790134557    -1.322343595350     3.694373388879
H     -2.665509393042    -0.374172657195     2.713876572175
N      1.761164059102     0.217779770288    -1.003362763634
C      2.289375187038     1.029775099321    -1.973607628794
C      3.580138096780     0.828410548277    -2.412624591928
C      4.346854137590    -0.188394460183    -1.888544784693
C      3.794920012755    -0.986156771132    -0.921292849561
C      2.473522989050    -0.748480113366    -0.486856271077
H      1.690240991153     1.827983322508    -2.395947315637
H      3.987033638607     1.474708180743    -3.173359908297
H      5.364691159527    -0.352751888206    -2.232368099613
H      4.340438012897    -1.791180790936    -0.469706483126
O      2.073400559341    -1.572469818425     0.451523489076
H      1.144889423030    -1.529701910418     0.911420749765

