# STO-3G

title

0 1
C      0.094568058423     2.563400911604    -1.736811456291
C      0.961719465427     3.677380610490    -1.672617990300
C      1.143813672496     4.500286914277    -2.804634836920
C      0.467291913134     4.216722747849    -4.006421318781
C     -0.389489785269     3.100451373148    -4.072791140417
C     -0.571994589232     2.271708421505    -2.946195574888
H     -0.770533928586    -2.531007572389     4.319448036396
H      1.494257681891     3.915063203848    -0.752788725369
H      1.811792887131     5.357598818170    -2.743230063662
H      0.607461969581     4.851515763483    -4.878558695827
H     -0.910645244070     2.866625482748    -4.999472844893
H     -1.218200344015     1.399464515137    -3.019551051645
C     -2.209812233410     2.161585316891     0.319501284513
H     -2.635994633793     2.601280530859    -0.576417807610
H     -2.611821283273     1.203225193197     0.639675409425
C     -1.343619679320     2.873685211396     1.146384959330
H     -1.035575807612     2.439955297274     2.088956349330
C     -0.987805620492     4.289133023350     0.953959843543
O     -0.061458039623     4.775433283681     1.653482250822
O     -1.581769876706     5.021878009585    -0.087821788652
C     -1.112929875406     6.366068581273    -0.260960920533
H     -1.653135337113     6.835432291421    -1.111298973551
H     -1.304112771958     6.973376919377     0.652588626209
H     -0.024740450085     6.378893720867    -0.495528193422
Pd    -0.147499420687     1.382090108975    -0.157328725237
C     -1.252886259398    -0.946482871665     1.719473181896
O     -2.450731085247    -0.731020513598     1.539429061555
O     -0.330801097072     0.105502831296     1.688317520797
C     -0.599970935448    -2.272058106538     2.185356154392
H      0.278829719331    -2.439172413219     1.557462822667
C     -1.523413950164    -3.460831429424     2.056502375513
H     -1.004986930724    -4.376845361140     2.406277909726
H     -2.431246348296    -3.295537236035     2.672051080054
H     -1.821067460430    -3.591333153164     0.994819983679
N     -0.172802717241    -2.154156416374     3.595936422533
C      0.957759252323    -1.483821413388     3.910875886636
O      1.612920684202    -0.796288894840     3.074034512072
C      1.442607241799    -1.551240237153     5.302034652788
H      1.441774943515    -0.526039540538     5.708342070075
H      0.789094507779    -2.204280262701     5.905615836611
H      2.468837849195    -1.956997483488     5.283592612788
N      1.235371200665     0.082533049612    -0.951095732100
C      2.448476995544     0.441386337875    -1.471107752322
C      3.268697486084    -0.511888618768    -2.033905432558
C      2.881747084226    -1.831440616434    -2.088330639242
C      1.662009446954    -2.179355984424    -1.574248965447
C      0.819861950753    -1.191641822260    -1.003282187352
H      2.775541385147     1.472775301494    -1.424041489454
H      4.223893471979    -0.216354799493    -2.435278254530
H      3.529719990621    -2.581521174547    -2.533761258066
H      1.300918080000    -3.187401015196    -1.599663950044
O     -0.311179030161    -1.590838890871    -0.560079279728
H      0.589050494143    -0.184545191621     2.015776179075

