# STO-3G

title

0 1
C      2.412254227783     1.861241341721    -1.321627730951
C      3.729965494933     1.708410518102    -0.839512711008
C      4.748944557027     2.563100829943    -1.307844819799
C      4.459665848719     3.570429135686    -2.250110739035
C      3.143239932890     3.723181461203    -2.724991672280
C      2.118245223692     2.866592804004    -2.268038557397
H      0.486754027751     1.850442088345     1.611437964379
H      3.961225111281     0.946970481898    -0.097936890578
H      5.763237086257     2.443094650302    -0.932110981871
H      5.249032051413     4.228987520298    -2.605763559538
H      2.909540244496     4.503283758548    -3.447420488968
H      1.105541304145     2.991852740125    -2.647866535369
C     -0.784921028498     3.406611314053     1.085116523055
H     -0.581170792770     3.877167220336     2.044990443409
H     -0.158096202666     3.715746078857     0.252421384736
C     -1.776722857915     2.500754513900     0.894518582053
H     -1.941071565610     2.070932950839    -0.084086796267
C     -2.650112915359     1.975147654309     1.956070664337
O     -3.507595753078     1.101028353411     1.657976370052
O     -2.417037120369     2.342759566782     3.294764876821
C     -3.121099663402     1.576680244283     4.282432598200
H     -2.857660264686     1.949277298638     5.295330985147
H     -4.222482031146     1.674200271222     4.150252357264
H     -2.833457117387     0.500863709210     4.223803188629
Pd     1.003528978885     0.695003677523    -0.558684957201
C      1.548906793093     0.253495005731     2.368918356897
O      1.339591333897     1.355214701667     1.474833377859
O      2.598230987458    -0.372637065583     2.269737652102
C      0.352184209483    -0.022906421069     3.315013369643
H     -0.127999788672     0.946228069297     3.531170102010
C      0.816074020501    -0.610511413465     4.626427320208
H     -0.050255710900    -0.720718824516     5.311397278956
H      1.251607979159    -1.614791687523     4.442517515381
H      1.575614668696     0.044533649107     5.101017393955
N     -0.655922919406    -0.953677020208     2.791830094614
C     -1.085836812737    -1.012224685328     1.579410803078
O     -0.716409753777    -0.265460398678     0.515872851915
C     -2.141356306712    -2.010344224192     1.352648317389
H     -1.750695602381    -2.993294589741     1.667191906032
H     -3.001441189061    -1.724162101575     1.983321904706
H     -2.441600519678    -2.032176856651     0.291067387390
N      0.363745579002     0.108378965095    -2.414102127419
C      1.213023939334    -0.042846067616    -3.479596542351
C      0.706057317148    -0.311270759405    -4.733909756194
C     -0.650590121628    -0.438789256615    -4.930801695981
C     -1.479537847953    -0.311479595901    -3.848290112394
C     -0.931775337132    -0.050928327978    -2.573854048705
H      2.283917906256     0.051048161790    -3.342844622620
H      1.383034916588    -0.418648830019    -5.565922267527
H     -1.052756452018    -0.646765107592    -5.918900181384
H     -2.543051982255    -0.417785166567    -3.931058878502
O     -1.803270189454     0.014726327580    -1.601535297662
H     -1.393858055261    -0.131889082705    -0.551423657778

