# STO-3G

title

0 1
C      2.196994236101     2.728201276356    -1.332379254068
C      3.518570487301     3.124731096126    -1.641950806290
C      3.744668212072     4.217942070836    -2.504882319954
C      2.655222293865     4.898232124496    -3.082560690531
C      1.339449689713     4.483135236331    -2.797007220876
C      1.107068470248     3.391270698660    -1.934992631366
H     -0.087536619956    -2.774514773402     1.298948573244
H      4.373575182131     2.596765527635    -1.217754625767
H      4.763181822991     4.527645399725    -2.728615386391
H      2.827912551391     5.738631655937    -3.750605236946
H      0.492856015201     5.006756862889    -3.236771532121
H      0.081814695472     3.088005055505    -1.730489803035
C     -0.617563497032     1.967770854813     2.391874005172
H     -1.542108932268     1.604133555261     2.829538663546
H      0.256749478322     1.348066771518     2.581494936152
C     -0.524086793617     3.085334320998     1.626390332968
H      0.430042928461     3.371063707267     1.195887236139
C     -1.644390579199     3.987330944491     1.306205572637
O     -1.437828257085     4.939884315868     0.509137725241
O     -2.929138223614     3.719163766381     1.810174180355
C     -3.965283186959     4.623985866091     1.404207394409
H     -4.926599017935     4.312289963287     1.866794186740
H     -3.738602067386     5.661607858106     1.738968689331
H     -4.091787723960     4.609812545249     0.297867903461
Pd     2.063807501546     1.376984630927     0.113011370494
C      1.912263401057    -1.127528335488     1.713287062622
O      2.315247752642    -1.803715974918     0.720517325742
O      2.039658237846     0.182775864172     1.840420133758
C      1.028336412329    -1.800507179119     2.802691894930
H      0.782343397701    -1.082991222466     3.586981196681
C      1.649631272022    -3.041032844653     3.403116133656
H      0.952658613525    -3.477792920739     4.147663601280
H      1.829571212239    -3.787325686476     2.601394107372
H      2.608373733303    -2.787088346370     3.898803705846
N     -0.211350318657    -2.188287659080     2.117897943465
C     -1.404226840778    -1.582229806414     2.354609121910
O     -1.608918640236    -0.705858287401     3.228844567904
C     -2.517223680286    -2.020301170260     1.487080292022
H     -3.427590987185    -1.464104854398     1.770802540020
H     -2.237981816329    -1.798694751924     0.444124131233
H     -2.659272103697    -3.104734775485     1.633792341544
N      0.998912670470     0.141818921119    -1.123116623180
C      1.761170629232    -0.653092489857    -1.938831597406
C      1.150291252071    -1.471185851655    -2.866906273361
C     -0.222782789246    -1.519604002800    -2.957286817309
C     -0.957945049266    -0.732665812941    -2.109056202033
C     -0.293826531176     0.090473255351    -1.176756008811
H      2.842322726119    -0.619553315989    -1.870532426566
H      1.756369568609    -2.090433913539    -3.507251635751
H     -0.710512014987    -2.170124075032    -3.678311154244
H     -2.029209359255    -0.732880395755    -2.123307030152
O     -1.122092980799     0.768711707104    -0.392617358706
H     -0.722782288237     1.273071055132     0.369647875191

