# STO-3G

title

0 1
C      2.375664882659     2.178883668727    -1.278162749305
C      3.767310063619     2.254630105150    -1.060001383355
C      4.462846090725     3.437007594553    -1.387488457859
C      3.774950718410     4.542058893710    -1.927349412114
C      2.384495263800     4.465062296954    -2.135822828243
C      1.682194776328     3.282931097109    -1.817703680747
H     -0.099854957166     0.590315249279     3.879578318706
H      4.303630495637     1.413521202955    -0.625739087937
H      5.535966779317     3.492638120357    -1.216134563762
H      4.314868661145     5.452813643687    -2.176017441831
H      1.843180804225     5.318576097051    -2.539239385226
H      0.605289521572     3.234714299380    -1.972036453040
C     -0.566731715454     3.061761031191     3.192248627560
H     -1.609149974676     3.048127958552     3.503627514977
H      0.149707435715     3.478691527455     3.894475342952
C     -0.160968210842     2.607480398504     1.986106484598
H      0.883222075955     2.618483537991     1.705688224498
C     -1.053581910623     2.014250482010     0.982906201090
O     -0.549134206818     1.609051907245    -0.098379673821
O     -2.437817912022     1.933266794945     1.220537207315
C     -3.177895055494     1.103471919040     0.313044289271
H     -4.255155721743     1.129871390203     0.582345470197
H     -3.072639498411     1.459995331448    -0.736654914473
H     -2.837595527984     0.044251073535     0.381311281802
Pd     1.454237694890     0.521494898447    -0.695216516549
C      1.210813494438    -0.633126782724     1.616357354207
O      0.565130242073    -1.145600162769     0.608387977926
O      2.057058528966     0.337956280494     1.402361528324
C      0.916065958512    -1.042227414836     3.066813088528
H      1.753081568455    -0.673754593060     3.670965491064
C      0.796757155900    -2.539178372633     3.268706996447
H      0.494342477500    -2.750546554450     4.315018684478
H      0.037415684757    -2.964234619403     2.580556143529
H      1.771553449741    -3.027725647888     3.066661700514
N     -0.291536200032    -0.351608589027     3.552409484049
C     -1.600287948296    -0.695459806207     3.322335878559
O     -2.003337564167    -1.625131191313     2.591504027099
C     -2.612859009431     0.094352470326     4.064229038015
H     -3.241170297005     0.613514815331     3.323108005146
H     -3.221040160428    -0.620544049422     4.642086897407
H     -2.135546490543     0.816534323198     4.747837514901
N      0.515499356849     0.171091892491    -2.498434075420
C      0.969887950999     0.645375231894    -3.701034781630
C      0.222664134383     0.457061321861    -4.845384153882
C     -0.979961308851    -0.210978843999    -4.793460600406
C     -1.405162365233    -0.689570087544    -3.583154381358
C     -0.615192316154    -0.480953645198    -2.431974112049
H      1.920322737807     1.161286267836    -3.761822286834
H      0.587936497565     0.837075133824    -5.785328129438
H     -1.572181690839    -0.363051827636    -5.691906773398
H     -2.323617097702    -1.232002965831    -3.477538623771
O     -1.134706597305    -1.023606940055    -1.343385432793
H     -0.565629600055    -1.030970025531    -0.503775541728

