# STO-3G

title

0 1
C      1.548713341434     3.129393923262    -0.656939968668
C      2.825434602963     2.567402047112    -0.844451024090
C      3.969038296020     3.311602497340    -0.484535549779
C      3.840781936790     4.614130477512     0.035769723827
C      2.561372446591     5.178925764165     0.202769265160
C      1.412419536104     4.441790819471    -0.152902739186
H     -2.458218058031    -1.650630884308     1.234988252967
H      2.943122449622     1.558442824134    -1.232888752430
H      4.953287216391     2.861583114755    -0.600136258316
H      4.727988666893     5.181723706363     0.305935539188
H      2.454225248832     6.187620198906     0.595449233607
H      0.427825945671     4.898543231690    -0.035120296997
C      0.329463852896    -1.265110510818     1.350297427401
H     -0.227300019688    -0.835742159226     2.179936017132
H     -0.181678429993    -2.034565881906     0.779662512902
C      1.569237367420    -0.864520384371     0.994421995418
H      2.057364935622    -1.327185509953     0.146060007796
C      2.332660700323     0.195705145688     1.665899651627
O      3.535222230128     0.376026398341     1.337246118388
O      1.672796652555     1.078736700134     2.542561221455
C      2.472348929983     2.144404985607     3.074666787332
H      1.852243252965     2.768495040267     3.752955254308
H      3.330486387002     1.741697598980     3.658990574115
H      2.856796050070     2.796678577201     2.258157341025
Pd    -0.198911337330     2.235390954475    -0.838237542120
C     -2.413166152461     0.484558385018     0.191342503426
O     -1.887666188573    -0.572572710688    -0.343598943515
O     -2.184012452381     1.683753391411    -0.219937849817
C     -3.306053736182     0.240799110109     1.422804989219
H     -4.352200005530     0.458578453451     1.164318255522
C     -2.912875398750     1.124467990151     2.592513512051
H     -3.612587975595     0.959683043739     3.437913077345
H     -1.889020873788     0.865122576784     2.928828292796
H     -2.955861016030     2.194580671996     2.303914771219
N     -3.143681028225    -1.161060718369     1.806208043727
C     -4.038483167397    -1.795713621917     2.603787818433
O     -5.019760107620    -1.238876116192     3.152276789476
C     -3.808874495922    -3.237883389828     2.842287755544
H     -3.701115893933    -3.378638740067     3.930342389510
H     -4.696381243038    -3.776035875806     2.471670670798
H     -2.900633197180    -3.583790432567     2.318600053694
N      0.406920953871     1.381092585414    -2.595684130031
C      0.939580899169     2.207583036050    -3.551050566549
C      1.467364363386     1.679049649516    -4.708148789150
C      1.462388316102     0.320465023989    -4.922360713264
C      0.906107781848    -0.485552016796    -3.966440846994
C      0.357494040174     0.080036590879    -2.792682698452
H      0.955577817019     3.279841469022    -3.393560716603
H      1.893915317110     2.338116468488    -5.446804429635
H      1.882369773265    -0.101925435534    -5.831513266059
H      0.859386086052    -1.550397773515    -4.083112289400
O     -0.157396464082    -0.792164483178    -1.982374697757
H     -0.937574384846    -0.590467932535    -1.205744699748

