# STO-3G

title

0 1
C      2.600060417850     2.049080109510    -0.679710432047
C      3.956867977524     1.954136248902    -0.313829098827
C      4.786708515576     3.089312805349    -0.426708608592
C      4.265644765824     4.308384789654    -0.903034967873
C      2.907791191215     4.394927334284    -1.265496326511
C      2.070432548639     3.263808537861    -1.162598707231
H     -2.064300223842    -0.519097289660     1.800391882723
H      4.364451589249     1.021977160438     0.071784677917
H      5.833356705665     3.018605495085    -0.137476255646
H      4.908916691274     5.181607095238    -0.984635134234
H      2.495405775196     5.336657645552    -1.622512886930
H      1.018400103183     3.345087531310    -1.430666975794
C     -2.135997813933     0.921420612707    -0.833203810888
H     -1.080029177009     0.993721190438    -1.080338083191
H     -2.730104447243     0.272579000855    -1.470681768617
C     -2.664610783127     1.584099474863     0.218376268110
H     -3.720244927476     1.510632674398     0.439093997493
C     -1.882111897641     2.433787024076     1.127218440388
O     -2.483731709949     3.072193366792     2.031309340213
O     -0.495951425474     2.583444027839     0.919039040491
C      0.201597286113     3.341661056059     1.918305438665
H      1.285612689673     3.373678309223     1.674212763333
H     -0.177878576346     4.387496040441     1.960606825119
H      0.092148603866     2.866675807470     2.920301936735
Pd     1.415376694374     0.499186614294    -0.361858495687
C      0.413356467067    -0.470009166843     1.826409292634
O      0.004895460889    -0.987730201679     0.692834779264
O      1.401263515400     0.364908212303     1.828576563700
C     -0.381114770821    -0.789769359900     3.086271988616
H     -0.039413928707    -0.158893663686     3.910741180730
C     -0.267807500954    -2.247190506213     3.487952760413
H     -0.821901714242    -2.414253161859     4.435130065125
H     -0.718172803989    -2.882603039965     2.697451797959
H      0.795309792826    -2.525491935916     3.637973610047
N     -1.787691087974    -0.489322732737     2.778439812574
C     -2.651263234299    -0.188883462184     3.785876780560
O     -2.334366515619    -0.148152509662     4.996921599272
C     -4.045376046105     0.080925613251     3.381032942802
H     -4.654613613808     0.209366565605     4.292662253566
H     -4.047990902901     1.011368492137     2.794453774537
H     -4.407798079969    -0.774609206736     2.786191919456
N      1.094805673786     0.062057138589    -2.372765544335
C      1.805334293362     0.636157302724    -3.399067255676
C      1.564542952504     0.263204836449    -4.704838606761
C      0.616407365762    -0.688482819614    -4.999477826466
C     -0.071507527212    -1.257272611801    -3.962679734917
C      0.203069768171    -0.857949994272    -2.638511542838
H      2.563958918715     1.380598032673    -3.199613334489
H      2.128250094114     0.724340140615    -5.500037682887
H      0.423201039385    -0.984702308976    -6.027356398239
H     -0.816443393934    -2.011774384965    -4.124712067313
O     -0.530268237370    -1.495924121919    -1.745011968856
H     -0.369376544475    -1.318466386979    -0.760542137184

