# STO-3G

title

0 1
C     -0.296249210499     2.860925501759    -1.718389727329
C      0.485514031453     3.728978840349    -0.929018504873
C      0.212531703760     5.113718357765    -0.933816285428
C     -0.824953953461     5.631664898778    -1.731987711792
C     -1.599470932900     4.759049800374    -2.521742282997
C     -1.339065792977     3.372901935868    -2.517851605167
H     -2.552127143973    -0.249061410990     1.641852934384
H      1.287305824190     3.347212370295    -0.299632357454
H      0.807719523693     5.776202595524    -0.307906851058
H     -1.031464180548     6.699407492084    -1.733547358153
H     -2.407445625101     5.151312247036    -3.135971266969
H     -1.954991231840     2.707059214685    -3.118814996239
C      1.164996771643    -0.850516673170     1.874817218802
H      1.056982731458    -1.269413853218     2.870418795543
H      1.166816004146    -1.574964170622     1.065395692955
C      1.267353377519     0.473324065393     1.621688247916
H      1.353108041154     0.821930476708     0.599454815906
C      1.259241360193     1.527725899179     2.646404288805
O      1.419831471587     2.723489272732     2.283396229806
O      1.056279170200     1.194405383949     3.998950640168
C      1.035922816651     2.293903366339     4.919685173621
H      0.869655652491     1.909000085451     5.948876291116
H      2.006581973064     2.839671974301     4.905464285338
H      0.210272149575     2.999998128725     4.674331383902
Pd    -0.054036644601     0.899265110170    -1.672173638012
C     -1.441971649206    -0.986028365341    -0.551798747127
O     -0.327776176269    -1.340913917567    -1.126749309695
O     -1.885979552301     0.228390753460    -0.715671060859
C     -2.168406803461    -1.925266596420     0.410565479692
H     -1.576662818718    -2.832418407258     0.555141801834
C     -3.560680476769    -2.288441535890    -0.056358827099
H     -4.022940470326    -2.981142105730     0.677180564075
H     -4.180866566027    -1.369756693364    -0.114835216186
H     -3.519099337554    -2.781121919277    -1.049160374918
N     -2.275249521227    -1.223862905219     1.692039705413
C     -1.783122118144    -1.768952540298     2.837276553169
O     -1.245072251475    -2.896797633979     2.921624405547
C     -1.915028827345    -0.922436279959     4.040370117283
H     -1.481050034741    -1.460589085935     4.900790381917
H     -1.365882032371     0.015243296250     3.855027805791
H     -2.987906220355    -0.723229030061     4.203249694414
N      1.895580287385     0.946152994169    -2.341014914878
C      2.433402896487     1.984856182895    -3.059284837033
C      3.765964486663     1.963696471980    -3.414076409900
C      4.570393151694     0.905661142752    -3.056387960338
C      4.007832957606    -0.127871856921    -2.356615120201
C      2.640168443460    -0.079058722708    -2.019072795315
H      1.817054111903     2.823811573389    -3.357804405398
H      4.178732734068     2.788564724645    -3.972378033916
H      5.622491495516     0.887689626746    -3.328909058862
H      4.577950603012    -0.985138494155    -2.056043368496
O      2.225175716155    -1.144487550217    -1.357981212199
H      1.231411561829    -1.266671628130    -1.200976160886

