# STO-3G

title

0 1
C      1.861979194088     2.277668411537    -1.474560625208
C      3.185782306967     2.759793170620    -1.462170829974
C      3.475727669637     4.007611680703    -2.052521101673
C      2.451653492442     4.767275303912    -2.651579859306
C      1.131155862703     4.278704432506    -2.658576113409
C      0.831603504097     3.028358154965    -2.077093349052
H     -0.434692004864    -1.696603492820     3.027080986008
H      3.980076103386     2.189086345062    -0.985360564073
H      4.496916042026     4.383321725776    -2.037769878246
H      2.679301776400     5.731130553967    -3.101280807422
H      0.331949390976     4.866429843715    -3.106059111242
H     -0.195754956318     2.669548307272    -2.067753013785
C     -2.085987991730     0.365164654033     0.213110072381
H     -1.087170927877     0.440651542468    -0.210430943565
H     -2.612086129722    -0.563934112759     0.010825027292
C     -2.619822126617     1.365780116090     0.947736767603
H     -3.612762197860     1.283332965281     1.364610109495
C     -1.911200386102     2.614388448449     1.264834102367
O     -2.567295799122     3.594149302341     1.707758999898
O     -0.570633912479     2.758178869618     0.855990646230
C      0.063240614958     3.992529664834     1.218892440884
H      1.118902018753     3.982560901797     0.870327502467
H     -0.451356225556     4.856973694210     0.742046427364
H      0.065006282914     4.123908691149     2.324860531825
Pd     1.466027603668     0.605676886744    -0.495703343325
C      1.227371151379     0.119328456979     2.029523189655
O      0.946353489340    -0.863175030797     1.203074035348
O      1.877142577334     1.149961636734     1.598573348685
C      0.705168616481     0.025715916321     3.465957982352
H      0.450004836174     1.033079434838     3.807936196649
C      1.715281169701    -0.585073750670     4.412229285916
H      1.296613239739    -0.590376706777     5.439996701980
H      1.919686394728    -1.632234751129     4.108170385739
H      2.656305587006     0.002565600068     4.404532756482
N     -0.502077387021    -0.794105005153     3.485447364230
C     -1.721068768281    -0.242412337540     3.742021271177
O     -1.916099389115     0.960787229812     4.022660474181
C     -2.863120283118    -1.175226502518     3.657681159131
H     -3.788692574039    -0.620107312299     3.889828480800
H     -2.895132962201    -1.576018725574     2.631629294443
H     -2.698470675733    -1.983339883578     4.390858342433
N      0.790237714740    -0.431128027724    -2.158607157229
C      1.088958179707    -0.064528452350    -3.447754398765
C      0.580318507433    -0.783990074608    -4.508680682728
C     -0.225314196835    -1.878087756464    -4.292247993273
C     -0.495535978268    -2.236580894878    -2.999283009984
C      0.046316565732    -1.483435426925    -1.937602965606
H      1.730884081318     0.784336777538    -3.645146380868
H      0.818915431549    -0.482769285930    -5.516148195417
H     -0.629311305407    -2.447201293323    -5.125597544914
H     -1.105027701775    -3.086936610277    -2.763576806400
O     -0.284737495658    -1.950346942396    -0.746628777214
H      0.134031326057    -1.522168992116     0.074660102639

