# STO-3G

title

0 1
C     -0.104533401019     2.030005364557    -2.236792295693
C      0.912599068538     2.915965823796    -1.832907666321
C      0.580894517978     4.260707693732    -1.558337745299
C     -0.745268543352     4.711580508976    -1.691192119918
C     -1.752092541962     3.811777390904    -2.091670909221
C     -1.439432071182     2.463458170970    -2.360810974186
H     -0.451957611234    -0.826644098991     1.825039046607
H      1.939026047650     2.586251360694    -1.712270873583
H      1.361373961573     4.944745452805    -1.232286599860
H     -0.994338029619     5.746703726012    -1.471051107513
H     -2.782484552156     4.148128096588    -2.180921943484
H     -2.224940864412     1.763876444902    -2.630426195335
C      1.692401101130     0.470665683793     2.063646004694
H      1.878435245898     0.170816097475     3.092435562695
H      2.301376971063    -0.007445024989     1.301901468706
C      0.741130351808     1.369432742457     1.717202924430
H      0.588015235034     1.618958561662     0.675063872462
C     -0.169248794666     2.032828287282     2.662745563244
O     -0.990994506582     2.881197211568     2.221588802560
O     -0.067860469061     1.766190880056     4.042567952305
C     -1.065259487944     2.379471499362     4.870628921460
H     -0.892530513639     2.091989316098     5.929719201198
H     -1.012876960948     3.489397892883     4.797383243998
H     -2.084000312936     2.036136217657     4.578247136345
Pd     0.188716470630     0.118529306247    -2.680504223044
C     -1.175506966942    -0.872884204379    -0.500118871751
O      0.053054626982    -1.148128436216    -0.221439756348
O     -1.583531631612    -0.472962041381    -1.677636321769
C     -2.191886061145    -0.971442240949     0.652305657847
H     -2.816920783751    -1.866103091817     0.520112405541
C     -3.103592506549     0.237731468927     0.720709329005
H     -3.810533393175     0.122703035605     1.568409263741
H     -2.498580726824     1.152253838117     0.886419259441
H     -3.684083280983     0.340951967691    -0.218660806123
N     -1.438405727986    -1.067045242363     1.900527027754
C     -1.948457204707    -1.681637471019     2.993958445987
O     -3.117260721353    -2.129035774128     3.088090186025
C     -1.018496014818    -1.805172314183     4.135636307916
H     -1.539274843103    -2.319641218113     4.961345661332
H     -0.148273536389    -2.389958453799     3.795634540682
H     -0.711491777904    -0.789853200477     4.438783655682
N      2.213894532938     0.299415656202    -2.941811026143
C      2.823314886305     0.868571067876    -4.027340629337
C      4.199167353331     0.917414794986    -4.095479690261
C      4.970717005836     0.397193194353    -3.079202261736
C      4.336169762449    -0.164259235220    -2.002107575236
C      2.926835478339    -0.197001092293    -1.959893753256
H      2.222730392238     1.281962577274    -4.829458707467
H      4.673015134861     1.369052718598    -4.952311704220
H      6.055964820680     0.434518743656    -3.128862549593
H      4.880706239384    -0.579785891065    -1.176848713930
O      2.439104441685    -0.736559477735    -0.866512920824
H      1.404004502644    -0.870207892821    -0.704109247303

