# STO-3G

title

0 1
C      2.291947207067     2.476600793779    -0.810364430973
C      3.355842897821     2.445067187268     0.103713321908
C      4.157485495908     3.597415114154     0.251246078315
C      3.885168844528     4.760447004914    -0.497344803859
C      2.804904348731     4.782884931848    -1.400582084091
C      1.995547015068     3.636149494633    -1.552391706635
H     -0.763023587475    -1.132777267240     2.955070161859
H      3.554702531587     1.546141694263     0.678467462892
H      4.989996866066     3.582852840539     0.951170062340
H      4.503823102383     5.645613122111    -0.370968558313
H      2.579167982423     5.681481338877    -1.970011914693
H      1.138490239473     3.667691100127    -2.232497857543
C     -1.371306984168     2.379896379252     2.447124182866
H     -2.451988477444     2.388819471146     2.567647566711
H     -0.773207257501     2.356417033666     3.354168573178
C     -0.770157757280     2.368637311950     1.239031167533
H      0.308162096567     2.326401308708     1.166280433016
C     -1.477766289490     2.367354990129    -0.049232057837
O     -0.800397501231     2.205413752867    -1.104724028516
O     -2.865982613030     2.589763160623    -0.095310863890
C     -3.479593748815     2.466756377878    -1.385454668544
H     -4.569330990974     2.662671250651    -1.292511153602
H     -3.052687719924     3.204676964436    -2.101222674121
H     -3.349555693325     1.436306019625    -1.786662172079
Pd     1.195518387130     0.946318532097    -1.419777336812
C      0.847684076626    -0.488392553080     1.148068793187
O     -0.372893944610    -0.705435434014     0.843903416782
O      1.758576424044     0.023517307323     0.371509511380
C      1.269820521581    -0.802178233593     2.600294957851
H      1.961363557186    -0.031201873106     2.952451166811
C      1.927376747770    -2.158699184008     2.728675094750
H      2.235794504687    -2.317298851379     3.782788474595
H      1.197195113285    -2.946530006016     2.450638951150
H      2.819595518869    -2.219103294725     2.072408694566
N      0.069449313445    -0.789837068833     3.427955175230
C     -0.025277145010    -0.002269057047     4.531249731056
O      0.892200020711     0.724478167624     4.980961145597
C     -1.331640340928    -0.050445394663     5.220689096295
H     -1.298229827071     0.626810877849     6.091612212521
H     -2.106855288586     0.266207634610     4.503848355943
H     -1.505483184641    -1.091518008803     5.543010315593
N      0.003438585245    -0.455451531448    -2.612432936595
C      0.498159094145    -0.670557831672    -3.871510495767
C     -0.321989048537    -1.159138845574    -4.867405860914
C     -1.642110678510    -1.451584342693    -4.605738050103
C     -2.109791292039    -1.255533544008    -3.334146406443
C     -1.236827991285    -0.764413058519    -2.337864368421
H      1.532713609592    -0.433222583217    -4.090753693134
H      0.076744550482    -1.313831649965    -5.856826321739
H     -2.292424616337    -1.840257490138    -5.385025810010
H     -3.117260583841    -1.491998204639    -3.054849300374
O     -1.786944791930    -0.677712683870    -1.148132585956
H     -1.131165253972    -0.591604819968    -0.323582610574

