# STO-3G

title

0 1
C      3.024701647810     1.698879824506    -0.846271646830
C      3.993034956628     1.225573735850    -1.754884819551
C      5.207496143854     1.929104877309    -1.904263098891
C      5.446219020851     3.101259227774    -1.161080396116
C      4.470719845282     3.568873218114    -0.258619105082
C      3.255848366585     2.870402185290    -0.098404068904
H     -2.023993917595    -0.612436096066     1.846505234513
H      3.821142240122     0.316182213602    -2.327253407207
H      5.961728813745     1.556513159357    -2.594513827251
H      6.383054306643     3.640735702417    -1.278640140998
H      4.650666109326     4.469680609305     0.324141140072
H      2.510392008997     3.229961385372     0.608648346052
C     -3.444980761495     1.117070529391     0.127005240120
H     -3.977389189320     1.361375456276     1.040224751524
H     -3.999633428256     0.563831559481    -0.626269504411
C     -2.163462181782     1.472254890364    -0.106936960607
H     -1.696280212973     1.199996250878    -1.040949360558
C     -1.278930917080     2.161552592979     0.841222734824
O     -0.069237792774     2.331461638293     0.516848824259
O     -1.772709909821     2.597938426442     2.084011859814
C     -0.782511899474     2.989907076296     3.044774824370
H     -1.284598329501     3.291102597828     3.989411679534
H     -0.101432848927     2.138835290683     3.277324476618
H     -0.187423259521     3.854661939230     2.674091800750
Pd     1.361069576905     0.683720313196    -0.514639781822
C      0.465758690717    -0.710069888744     1.494844104779
O     -0.228590225293    -0.742935485141     0.378377467513
O      1.608793684434    -0.111611209227     1.529893980253
C     -0.206214652440    -1.265286031633     2.744973730397
H      0.319954819406    -0.917291210215     3.637255343967
C     -0.264777995950    -2.778561558669     2.754085869635
H     -0.736241687845    -3.121141689521     3.698710901528
H     -0.883885331752    -3.127771487536     1.901863298578
H      0.756571626998    -3.205168973452     2.681331532742
N     -1.578460981117    -0.742473148312     2.752417087385
C     -2.166248260178    -0.391831560276     3.927450367610
O     -1.615647090028    -0.475247905978     5.049811217244
C     -3.549103754469     0.114750653768     3.829202739725
H     -3.945960173773     0.250660391318     4.850222073053
H     -3.507910666933     1.081900239332     3.307534027279
H     -4.151017117788    -0.622551824316     3.271043407039
N      0.625449254354     0.951280606719    -2.436192905392
C      1.040138805418     1.959274357751    -3.269587080795
C      0.575100148024     2.017444983338    -4.567365055148
C     -0.312107868811     1.075814709174    -5.037284009820
C     -0.730017584676     0.094038471816    -4.179020124222
C     -0.238777912233     0.068396722411    -2.857665818099
H      1.726701579657     2.718408967870    -2.916327366698
H      0.911493708424     2.811295983409    -5.214531451336
H     -0.680993317138     1.118209244921    -6.058797941299
H     -1.434908944738    -0.657167917567    -4.476482910448
O     -0.760387577547    -0.897395102446    -2.120945371260
H     -0.532696222822    -0.916527969846    -1.131135452613

