# STO-3G

title

0 1
C      1.278201771146    -1.218674887589    -1.562409693727
C      1.556737570094    -2.533456599010    -1.123127462974
C      2.863278976678    -2.871768689095    -0.736616707851
C      3.882970669540    -1.897810459009    -0.768636946213
C      3.601272288206    -0.583825199936    -1.191147549200
C      2.300460551765    -0.243800892615    -1.599284928548
H      0.318072190989    -1.038198123556    -2.076024927889
H      0.756003165472    -3.262859829351    -1.065640057681
H      3.082381026509    -3.880005992746    -0.394835132617
H      4.891526625915    -2.156019837084    -0.453251728157
H      4.386585149284     0.167768903896    -1.198396770596
H      2.087707560458     0.766644707045    -1.937761706808
C      1.268639256807     0.100334984429     2.139522725610
H      2.044751531085     0.857075466835     2.231097101527
H      0.269526011423     0.483932134834     1.970090464092
C      1.490796911719    -1.231280102598     2.222231965139
H      0.669663938210    -1.918287295169     2.070264571630
C      2.801344663938    -1.851208403768     2.480887120315
O      3.815791903883    -1.129335679887     2.688490090645
O      2.880840839425    -3.254347727241     2.553825098338
C      4.182266727287    -3.795739614754     2.817790279275
H      4.119455656399    -4.904600668412     2.848579857389
H      4.899196450994    -3.507932763131     2.016126578621
H      4.565052391892    -3.441008889694     3.801572629690
Pd    -0.728080674299    -0.299946759572    -0.430713478802
C     -2.326525074257    -2.358081151210     0.724183765112
O     -2.746379293189    -3.450925149582     1.138970617426
O     -1.056405988637    -2.148841766869     0.312782986717
C     -3.237041989126    -1.087198223060     0.635381181938
H     -3.967366043779    -1.161722724708     1.450591387711
C     -3.983259649825    -1.015169197953    -0.677590586410
H     -4.620744920010    -0.107054819693    -0.692543176014
H     -3.264485491093    -0.960373803341    -1.519329651493
H     -4.625893334845    -1.912446272016    -0.800114864413
N     -2.355661355170     0.093483662263     0.706773260675
C     -2.395127110544     1.080551220128     1.581794187359
O     -1.486924856225     1.984528456357     1.731015966731
C     -3.553895573340     1.197096556659     2.492270819000
H     -4.474354311655     1.240880756737     1.885724815427
H     -3.549588041749     0.333700905540     3.178514431966
H     -3.459408207090     2.127239755791     3.084275643943
N     -0.524339863474     1.496549204542    -1.434322300600
C     -0.837656345831     1.463823139952    -2.766915964577
C     -0.437941235168     2.488277918076    -3.597740334389
C      0.259755206126     3.565157578416    -3.097159557218
C      0.521135298619     3.602627719476    -1.753877571838
C      0.081985549744     2.547850152600    -0.923150410149
H     -1.368998959009     0.612067447196    -3.175181227689
H     -0.669240111831     2.441435933406    -4.649619412704
H      0.580491451410     4.373434181253    -3.749243791111
H      1.031008635302     4.426631076534    -1.295130032350
O      0.311585470531     2.703466188801     0.343320463198
H     -0.489996544969     2.253488486822     1.035068440043

