# STO-3G

title

0 1
C      2.364265803785     0.663236159265     2.883229923280
C      1.961877133141     1.973709558508     3.241538617291
C      2.886923992770     2.895491980852     3.779881316643
C      4.223504380114     2.521840320106     3.997987070123
C      4.628071668770     1.209838380223     3.681808792023
C      3.709817194144     0.292679774842     3.136219387269
H      0.857193587515     1.719825365999     1.208779343577
H      0.931696062183     2.307298875954     3.133209690047
H      2.550604031278     3.898770993585     4.034055666791
H      4.932426510595     3.230645819062     4.419174745856
H      5.653087324527     0.894116412176     3.867817659360
H      4.044783843180    -0.719318578877     2.919707875550
C      0.602766847461    -1.211994989354     4.159765543632
H      0.458354874292    -2.289823601665     4.160256295899
H      1.400516486312    -0.824692062173     4.780850617939
C     -0.392942489989    -0.353370842449     3.632303802905
H     -0.314541311625     0.708408028763     3.804404906489
C     -1.737262342774    -0.803350712354     3.223998907822
O     -2.123380748136    -1.965198652157     3.516445217189
O     -2.614287093716     0.129473977657     2.641204027202
C     -3.926961670338    -0.361593505174     2.331925701446
H     -4.532225623255     0.453952413789     1.881524668063
H     -3.873928342507    -1.205229034838     1.605865856173
H     -4.447078109469    -0.706884572588     3.254742176918
Pd     1.130683679121    -0.749921901024     2.093948692734
C     -0.804128040129    -2.522157312510     0.396489315853
O      0.034949996474    -2.473922960494     1.441975884556
O     -1.497638579982    -3.510946295988     0.083391704352
C     -0.874703175547    -1.232948921899    -0.493697561238
H     -1.941860744525    -1.109353391126    -0.739827278253
C     -0.112915946539    -1.442863450144    -1.786845630756
H     -0.223651885539    -0.554385973674    -2.440766382405
H      0.964705609696    -1.583736620152    -1.561343502600
H     -0.497156756864    -2.336421015083    -2.322297354797
N     -0.266594810237    -0.082209201521     0.167658337742
C     -0.645273962023     1.136114819571     0.129266806281
O      0.069165617056     2.108920651118     0.756201187142
C     -1.855258316061     1.603519708077    -0.568022026913
H     -1.768714053986     1.336413304968    -1.633712829680
H     -2.726073555083     1.122205364727    -0.094755868435
H     -1.931936071406     2.701192784786    -0.459498718789
N      2.674464206263    -1.360204930860     0.722636203494
C      3.402801258188    -0.440278858083     0.017323120354
C      4.481198918004    -0.853386485803    -0.739821188002
C      4.828429283936    -2.186274375301    -0.796757441283
C      4.065619275121    -3.088264864198    -0.101287588300
C      2.961267148556    -2.629090037360     0.646330241102
H      3.140324704799     0.610564050664     0.065677982794
H      5.056596622669    -0.121306849369    -1.282306795595
H      5.679140700454    -2.515079199019    -1.387708250174
H      4.265308249767    -4.141165362361    -0.120248034454
O      2.258633203405    -3.577865502939     1.238047137827
H      1.285508726028    -3.282924699422     1.470795133488

