# STO-3G

title

0 1
C      1.125403007361     2.509489238311    -0.301476937334
C      2.340217280741     3.121558286710    -0.672357237244
C      2.336682268420     4.434268728706    -1.190542636856
C      1.125794599602     5.135947435524    -1.344283017825
C     -0.086543070198     4.520973643238    -0.976424260882
C     -0.091508479171     3.210035650767    -0.455750810695
H     -1.288290503504    -1.307379351812     3.377191913328
H      3.285018453802     2.591874734531    -0.565580252308
H      3.278939225244     4.902543729468    -1.468229070928
H      1.128689495443     6.149104813368    -1.739193125170
H     -1.026165350606     5.057873775027    -1.087999172746
H     -1.037306234371     2.751113705747    -0.176538230902
C      2.071795565441     1.044536979785     2.340971978930
H      2.810171708601     1.831959332479     2.222320961114
H      2.432952608405     0.030759481988     2.484978815950
C      0.720715369208     1.328857658092     2.542641882713
H      0.045673884993     0.534767386195     2.821095873755
C      0.176771407038     2.687115888382     2.724782939513
O      0.957775965617     3.674791146610     2.761268647427
O     -1.217945799164     2.858492713254     2.724805938882
C     -1.681540428015     4.208688994515     2.864580160225
H     -2.792614672553     4.220230012170     2.856062237421
H     -1.337729049235     4.646031056764     3.829593352968
H     -1.317723118777     4.841728684345     2.023128617116
Pd     1.118272375427     0.625313933284     0.351550529176
C      0.253199765193    -1.962519428354     1.772927885854
O      1.282785949199    -1.479663135284     1.096533736196
O      0.227008981277    -1.969288444328     3.043475064555
C     -1.064724048305    -2.340992298722     1.021492476007
H     -1.570449744356    -3.086748019015     1.655427792220
C     -0.855993529702    -2.920578768667    -0.355521743834
H     -1.818970092398    -3.324897901704    -0.730187951400
H     -0.529984603005    -2.121346379728    -1.048804199156
H     -0.102649199748    -3.734501852284    -0.328095654355
N     -1.915450360790    -1.137169016816     0.850871368538
C     -2.338710275653    -0.485542804191     1.880159657753
O     -2.045206739846    -0.666768737585     3.203452787814
C     -3.281783148148     0.604336468747     1.617111102759
H     -4.171525912461     0.166371636500     1.134969421939
H     -3.551975855408     1.087949644417     2.572691146611
H     -2.793904866636     1.328533900724     0.945636914611
N      1.209359615685    -0.078317929414    -1.666097644053
C      0.669515770085     0.631129275077    -2.709934033946
C      0.976440030302     0.294586049168    -4.012265946226
C      1.818797352035    -0.758228639307    -4.285378715258
C      2.321972624084    -1.473735789229    -3.233010852614
C      1.977481273718    -1.110086626455    -1.914365616685
H     -0.008499342777     1.452545368718    -2.522724012168
H      0.550540809778     0.866629103387    -4.820645386343
H      2.064920715822    -1.024445355869    -5.310042953222
H      2.963317241565    -2.320659500986    -3.377625417521
O      2.475027927236    -1.905988159527    -0.993884585324
H      2.024168564584    -1.818229141674    -0.051113413534

