# STO-3G

title

0 1
C      1.205954867981     2.442652866363    -0.324488586447
C      2.424935138843     2.594686265151    -1.033250048867
C      2.726736787807     3.791426004292    -1.711186354409
C      1.816572186741     4.866711625832    -1.696974890361
C      0.610947136487     4.732885831207    -0.987829573821
C      0.308846248707     3.535632207586    -0.300718503433
H     -1.315779771269     1.699038359943    -0.111233300902
H      3.145901143381     1.780170028543    -1.057812876216
H      3.671825458687     3.881495650202    -2.243640283329
H      2.048718870324     5.791585884786    -2.219605626618
H     -0.098534463224     5.557122674061    -0.953980674943
H     -0.623432853889     3.505098053785     0.257342476025
C      1.935715958284     1.495561068017     2.314972249613
H      2.321517206317     2.483614604691     2.094976236455
H      2.662506976506     0.696916132720     2.438380773865
C      0.603544947630     1.277718442127     2.702799770880
H      0.339390582197     0.299622482774     3.075490235165
C     -0.390224260080     2.328088430181     2.979497788002
O     -1.510783467644     1.988088927579     3.444900133001
O     -0.039913086547     3.680581835741     2.827030480118
C     -1.083760020551     4.629443821465     3.085977231106
H     -0.696418771545     5.657007074183     2.916024769450
H     -1.946354115025     4.464893664336     2.400196277168
H     -1.430941680205     4.557884321534     4.141655387486
Pd     0.898712669707     0.640442695135     0.557847189606
C      0.065891621469    -2.169870531231     1.809283622659
O      1.060894669813    -1.320712221937     1.504494989219
O      0.198459651074    -3.183139368384     2.525456667679
C     -1.338318456135    -1.845649270526     1.188045183720
H     -2.073706224506    -2.106458903963     1.967319925019
C     -1.595149928559    -2.723580122182    -0.019501405439
H     -2.617186114027    -2.538196850093    -0.408246962615
H     -0.863028134586    -2.476201880055    -0.817219728766
H     -1.499625906932    -3.795712731316     0.252657604015
N     -1.400006440504    -0.470672490030     0.719128445911
C     -2.359241226160     0.362887414210     0.801361333745
O     -2.223646583265     1.614556884768     0.271083132669
C     -3.645337321421     0.089039290547     1.460929452250
H     -4.108477606273    -0.784936007444     0.975074766286
H     -3.442451000924    -0.093518003904     2.529946506327
H     -4.297592342844     0.975316712507     1.356155933847
N      1.245453905555    -0.282961246513    -1.324823381485
C      0.677429251618     0.201237412044    -2.472965795154
C      1.047072814127    -0.320971620534    -3.696409237893
C      1.980574949492    -1.331272182736    -3.774312194942
C      2.516226993772    -1.813927360879    -2.608843535309
C      2.103049311206    -1.265877865363    -1.376304941914
H     -0.053887000615     0.999834535199    -2.421605023780
H      0.602133943318     0.074283742451    -4.594780725663
H      2.277169458300    -1.741975068246    -4.735754787332
H      3.232257324185    -2.611291885350    -2.597247503841
O      2.646674110636    -1.826955366477    -0.315350847584
H      2.115340291048    -1.661194579662     0.577622441203

