# STO-3G

title

0 1
C      0.182236483703     2.414939630123    -1.166550855873
C      1.060443484413     3.484015319171    -1.432309297556
C      0.773061598657     4.393179119930    -2.474034331652
C     -0.386769174629     4.241932183720    -3.255041076011
C     -1.262910291209     3.170697665238    -2.992043216537
C     -0.981426874274     2.257604745583    -1.956523892635
H     -2.296945579395    -0.278927453226     3.091070360495
H      1.969213293066     3.633224527020    -0.855831889021
H      1.459202649594     5.215580905543    -2.667965182522
H     -0.605126492787     4.946910395220    -4.053901084012
H     -2.165101106155     3.043922357536    -3.587479437988
H     -1.660422638805     1.429947100593    -1.763274873799
C      2.022066658092     1.933287267123     1.343857717406
H      2.496492024196     1.119599417512     1.886150004697
H      2.631913157149     2.400992528570     0.581327011704
C      0.850350882041     2.542518365029     1.835365402164
H      0.502789245681     3.459944613038     1.383925721311
C      0.273143814648     2.250443497706     3.160263228360
O     -0.634321949837     3.006515624126     3.593447036997
O      0.850430996733     1.259198973857     3.968164150442
C      0.135350057668     0.937992187834     5.169061394755
H      0.660388252842     0.114589830306     5.699118428976
H      0.080780034537     1.818011943522     5.848327597625
H     -0.894819962717     0.585128438515     4.934440456575
Pd     0.424930051564     0.973658199555     0.195713333936
C     -0.515969150803    -1.290246832997     2.001889519340
O      0.594679496292    -0.652919522352     1.643905770579
O     -0.736329438264    -1.793085314828     3.134172894807
C     -1.675953119421    -1.226332696157     0.949285100744
H     -2.560912984181    -1.675075961396     1.424596824237
C     -1.387578262980    -1.978999705030    -0.324850967743
H     -2.289754470182    -1.963884642409    -0.970737304351
H     -0.561070188206    -1.495945404348    -0.873059679269
H     -1.119923062700    -3.031437398907    -0.097081091817
N     -1.924750481081     0.194379301424     0.577646719258
C     -2.488672821294     0.912270952744     1.499187481799
O     -2.744708511597     0.547758059519     2.785749913041
C     -2.955924202682     2.260336584172     1.170314586703
H     -4.044496334382     2.282883499923     1.345929199284
H     -2.458478335998     2.974292264321     1.846160910498
H     -2.738978541798     2.498806883571     0.117827781278
N      1.588277465988    -0.282447419956    -1.282580231480
C      1.529958139933    -0.075602165807    -2.637866763484
C      2.525806644939    -0.565053473588    -3.458573604056
C      3.584830224408    -1.270096101157    -2.932931221559
C      3.614939006703    -1.479517864380    -1.580584876784
C      2.573159316463    -0.972414908873    -0.775455261756
H      0.700381496684     0.463829756822    -3.074104277186
H      2.468590822308    -0.392087936211    -4.521087336111
H      4.371565010651    -1.657044686115    -3.575358477057
H      4.402962952020    -2.032019331742    -1.107658107521
O      2.710239845634    -1.256887979612     0.508669484134
H      1.889481665317    -1.059755640128     1.105148395917

