# STO-3G

title

0 1
C      0.655211278112     2.555302206580    -1.331846111798
C      1.747376379373     2.656556707503    -2.223197686459
C      1.654722031924     3.454722775859    -3.381632718601
C      0.472048669395     4.164913918954    -3.666816572905
C     -0.613200705475     4.085305872788    -2.774978233142
C     -0.520409099801     3.293298792960    -1.610333668402
H     -1.810879403938     1.102887100698    -0.986117534716
H      2.668432014135     2.112651341405    -2.022559121817
H      2.506629868572     3.522557235155    -4.055712139347
H      0.403533539668     4.780758806097    -4.560365632270
H     -1.523966401403     4.648159460226    -2.971521429124
H     -1.356514549671     3.297850013384    -0.909603829869
C      1.895193074531     2.704913111001     1.414962618178
H      2.390369497156     2.059451382180     2.135282308740
H      2.530213257388     3.233542002442     0.712059562521
C      0.542799597762     3.085053864440     1.585075126610
H      0.148608455016     3.870174155169     0.957087142144
C     -0.267487423507     2.799263961388     2.781973623914
O     -1.435566484081     3.265567846051     2.834597215988
O      0.283098833238     2.073291884650     3.848267552689
C     -0.637915967026     1.665662363531     4.869256168027
H     -0.096498335235     1.060926807121     5.629063732369
H     -1.087068212954     2.549043175946     5.375954360118
H     -1.446801363614     1.029257577878     4.440994050242
Pd     0.713146193563     1.319815109081     0.241890210942
C      0.286524401036    -0.896773578866     2.651615943944
O      0.966677913682    -0.020051472598     1.894966839764
O      0.764644679851    -1.427930173010     3.676134406641
C     -1.148384425762    -1.334157160571     2.193148882173
H     -1.539492249440    -1.874962398674     3.059869428478
C     -1.083385154920    -2.300852618910     1.020887092324
H     -2.108343462553    -2.632483908668     0.755469943374
H     -0.626091560989    -1.804691741798     0.142257321488
H     -0.476009855072    -3.189186406877     1.292002149504
N     -2.106344389269    -0.267553152108     1.908112171960
C     -2.320474554277     0.470809501304     0.911539835211
O     -1.523018129003     0.505712370842    -0.265270139170
C     -3.502591945427     1.348412653792     0.966971990386
H     -4.389118352702     0.699962254298     1.071186002952
H     -3.406678846922     1.984475123578     1.863778069429
H     -3.582676918154     1.969832495003     0.060558690957
N      1.422447378756    -0.301722715636    -1.012472904381
C      0.935931717084    -0.521409997738    -2.273386338054
C      1.570999397760    -1.419727673164    -3.108084475325
C      2.686370554066    -2.107394858563    -2.680052381258
C      3.138092595296    -1.886069917535    -1.405030383058
C      2.453704729349    -0.971222722349    -0.578090513969
H      0.063948323596     0.020848729124    -2.620539699125
H      1.187067409927    -1.579110778062    -4.102317122348
H      3.189210521723    -2.814818086121    -3.334127664132
H      3.986244848223    -2.402319690535    -1.001218729691
O      2.938012351100    -0.858759021221     0.644995173873
H      2.246915341369    -0.456916122133     1.325750052127

