# STO-3G

title

0 1
C      1.148668079349     2.561849544608    -0.877491450816
C      2.552224557693     2.683010031021    -0.995480710060
C      3.113293201363     3.558716827990    -1.948048252297
C      2.279585768439     4.318504754326    -2.791648595801
C      0.881757123432     4.197172565863    -2.674818855030
C      0.312848987939     3.324499038093    -1.721756646163
H     -3.005397391451     3.711645270409     0.006370188267
H      3.211410169644     2.092194504191    -0.360536777222
H      4.195958698707     3.642623289239    -2.027881645869
H      2.713221379142     4.994082577107    -3.525874582777
H      0.229537368188     4.780222166095    -3.323282663005
H     -0.766030529459     3.235908925361    -1.638539465939
C     -0.260508956328     2.760645613481     1.801363664758
H     -1.056235586329     2.303475927754     2.382554385466
H     -0.530664397404     3.595441360653     1.164995249148
C      1.089654795751     2.490902616276     2.081821268635
H      1.857493353363     3.088225098920     1.615442913557
C      1.557250149260     1.635253686669     3.186459285593
O      2.793456888949     1.434570726459     3.308358087501
O      0.632372147738     1.099534166917     4.098334916266
C      1.146394624381     0.110846112938     5.000918834565
H      0.323578642791    -0.254368846679     5.652398296442
H      1.550770880802    -0.762401348228     4.439215792282
H      1.943874625048     0.539348403659     5.649085247150
Pd     0.352689191301     1.210678991793     0.371176338419
C     -1.437696708206    -1.025954453432     1.724745890692
O     -0.288476535465    -0.345292900395     1.746703414235
O     -1.747052403788    -1.938852301915     2.519519222353
C     -2.444800760395    -0.634982385843     0.584739090337
H     -3.443016533266    -0.817970904114     1.015578114981
C     -2.282318911915    -1.537230763367    -0.618424479537
H     -3.046246803017    -1.281395767068    -1.381073242634
H     -1.277128889006    -1.387944055344    -1.062221305913
H     -2.402197975579    -2.600837148065    -0.324059598823
N     -2.190691513097     0.723311148833     0.119008552939
C     -2.993543561907     1.704243691083     0.143639522202
O     -2.559523024962     2.921184170641    -0.353308612877
C     -4.389828481691     1.610192372387     0.637064088654
H     -4.914107996383     0.845618991502     0.038628706641
H     -4.361547214081     1.337989289626     1.705804962042
H     -4.900728390313     2.581063995383     0.510777722733
N      1.219904706851    -0.347772386155    -0.834736133904
C      1.317020293148    -0.237928801277    -2.197451842335
C      2.103601024286    -1.122610970422    -2.907546021580
C      2.798551839346    -2.119461910485    -2.259003487516
C      2.672843684898    -2.220040510886    -0.898860353883
C      1.850237340318    -1.305657871537    -0.207834175112
H      0.772417576174     0.539094191258    -2.720774463855
H      2.177616364252    -1.021788679955    -3.977874957024
H      3.424150355268    -2.813840737103    -2.813516766309
H      3.175796532973    -2.979176496111    -0.333506376815
O      1.778167640319    -1.511876207982     1.092726647136
H      0.964534611642    -1.038351695325     1.556845356933

