# STO-3G

title

0 1
C      0.269765906119     2.904757134165     0.307032309707
C      1.444823533031     3.526214974431    -0.169013240282
C      1.411517151250     4.875241289564    -0.579735164108
C      0.208980269063     5.606032959865    -0.523502839878
C     -0.962787985626     4.981786265084    -0.054698585819
C     -0.937081669424     3.633505540403     0.361123432119
H     -2.249228855417    -0.685805652855     1.136443458022
H      2.381827677843     2.973580892618    -0.219985953904
H      2.322955053278     5.347571845892    -0.941363664007
H      0.185261416863     6.646018718833    -0.840609973992
H     -1.896891604975     5.538200097225    -0.008894277289
H     -1.854745253879     3.165509098129     0.710573272460
C     -0.424996121573     1.398562480471     2.904502766908
H     -1.025815106432     2.302233266458     2.900212333101
H     -0.926975719777     0.450267259588     3.086058510065
C      0.970430438742     1.448188882728     2.956009614517
H      1.520494133841     0.524592901166     3.083777492619
C      1.758136573328     2.684505345043     3.101855406947
O      3.010915132919     2.615766651085     3.004984922902
O      1.098587740823     3.916593141684     3.252333403444
C      1.933204717483     5.082467836864     3.239637938856
H      1.299595791795     5.987937839231     3.354986382322
H      2.664097373980     5.056559021686     4.079265988290
H      2.479201514233     5.166139309183     2.272872881265
Pd     0.318332905710     0.980411955073     0.828350486470
C     -0.533665793153    -1.917027541813     1.878020317066
O      0.484308971967    -1.172623868447     1.435912467475
O     -1.224750609878    -1.596116714030     2.886944833318
C     -0.986842648526    -3.121534121880     0.995007177030
H     -1.820892764579    -3.588281124546     1.537242877822
C      0.089319956451    -4.161943638254     0.788225959892
H     -0.354499507883    -5.053942240313     0.299341146563
H      0.877880577896    -3.762873793915     0.119262594717
H      0.533124915060    -4.461836660749     1.759537690622
N     -1.441900344483    -2.715235321318    -0.340708603390
C     -2.031408014992    -1.620245647643    -0.629612861334
O     -2.384840193805    -0.540373103529     0.173418153374
C     -2.408415651196    -1.436121900221    -2.033866004950
H     -3.088758835808    -2.260511041605    -2.305875431532
H     -2.907941505469    -0.460623613337    -2.159372164939
H     -1.488815793131    -1.485747220029    -2.642525510601
N      0.572749392885     0.443819158520    -1.214675477780
C      0.049390857091     1.196183608126    -2.235897592019
C      0.367104543610     0.904288568130    -3.546618316562
C      1.211810223169    -0.139747843172    -3.848015279186
C      1.703950451992    -0.893066574226    -2.817111662587
C      1.341678338046    -0.580824127290    -1.489637017401
H     -0.626390114512     2.014893312686    -2.024231793528
H     -0.047448224101     1.506957717990    -4.338200196434
H      1.468313898732    -0.370059186373    -4.878712869375
H      2.342126213283    -1.738020171343    -2.983633675306
O      1.825851960762    -1.402195868713    -0.588014383318
H      1.309168774007    -1.387237463109     0.346595480010

