# STO-3G

title

0 1
C      0.024463280074     2.425172182418    -0.622626154783
C      0.959087625302     3.275827046955    -1.250253326837
C      0.507945520141     4.342254554340    -2.055948681063
C     -0.871148524905     4.558775037208    -2.241426183550
C     -1.800069787266     3.702408983961    -1.619634917228
C     -1.357261820022     2.634966280810    -0.810037958332
H     -0.659378713189    -1.765023100698    -0.156600255285
H      2.028485957385     3.117756677494    -1.118634492212
H      1.234651050215     4.995704455389    -2.534832546643
H     -1.216664050850     5.381364107411    -2.863153986554
H     -2.867337937166     3.860210474823    -1.761164065841
H     -2.086907418069     1.974073647056    -0.348503765074
C     -0.355221162104     1.549734855882     2.342349310028
H     -1.234185959176     2.136249076920     2.095476292487
H     -0.535341265047     0.573246852981     2.776245290311
C      0.924672639864     2.108231630906     2.356917199819
H      1.751052423726     1.519570767896     2.734317086603
C      1.211812053347     3.535006865175     2.127944131840
O      2.411898731698     3.907500194245     2.070195749391
O      0.151155558164     4.431264577364     1.911052335444
C      0.522806493767     5.767969351923     1.548337286330
H     -0.394981098301     6.374642991708     1.392426168269
H      1.125870813697     6.245122826430     2.353724741085
H      1.102468831274     5.772026650844     0.597524917278
Pd     0.655918885977     0.879466251492     0.466189236560
C      0.745855886868    -1.976638777308     1.562093527740
O      1.457228007382    -0.843227526183     1.689296643167
O      0.866063247297    -2.762825731171     0.577702942799
C     -0.370080763364    -2.164990540216     2.633319371513
H     -0.025773116370    -1.685101618207     3.557080219618
C     -0.653380431685    -3.621677140932     2.927512478720
H     -1.405179968041    -3.699500698581     3.740403324429
H     -1.061128266564    -4.107245366005     2.016414204441
H      0.276379897153    -4.141223208901     3.238100289484
N     -1.661628685262    -1.549579924545     2.287556320939
C     -2.082878757238    -1.185352415402     1.136638721641
O     -1.469453158187    -1.201126115346    -0.105579420502
C     -3.427991884597    -0.602572292243     1.104648633869
H     -4.128955763417    -1.372887949640     1.469685316234
H     -3.438829819491     0.267843582388     1.780595680061
H     -3.688092672439    -0.307126437002     0.072079392916
N      1.413974261699    -0.029173532415    -1.279864022417
C      0.795442443520     0.064508540090    -2.498562675843
C      1.474868074921    -0.293226800055    -3.646105558055
C      2.765597363866    -0.770245280070    -3.576770988956
C      3.352239173324    -0.886041892192    -2.344118073746
C      2.623865378709    -0.521116206250    -1.192867839264
H     -0.221643465066     0.432524730462    -2.565016513097
H      0.981938255801    -0.206986908953    -4.600028676783
H      3.300559609013    -1.060330485721    -4.477001302751
H      4.340979007520    -1.278200754503    -2.216866747687
O      3.250730273238    -0.715470768138    -0.053749798654
H      2.594117008837    -0.768280715336     0.772629428590

