# STO-3G

title

0 1
C      0.945628157131     2.634466687114    -0.883484609307
C      2.282816886310     3.058645427357    -0.737507271090
C      2.713505797029     4.261166784667    -1.336758047667
C      1.817719209019     5.041078767105    -2.093395707815
C      0.484957316089     4.613891323359    -2.247456979185
C      0.046710228291     3.415374260385    -1.645028310357
H     -1.852168592786    -0.876845761544     1.234978005531
H      2.995419476492     2.457228751811    -0.175897280805
H      3.747421410132     4.578439807849    -1.216212576564
H      2.154758801985     5.964992076235    -2.557348686567
H     -0.215897806946     5.209452607154    -2.829236391086
H     -0.993952250666     3.115343950669    -1.763153467684
C      0.457040260205     1.567674575901     2.046950535300
H      1.280276854886     2.269923892454     2.133591241834
H      0.619413725877     0.591691354863     2.492634298946
C     -0.814427925366     1.958761050278     1.632521693601
H     -1.640696276395     1.263821267647     1.702033561787
C     -1.192162679719     3.356866983324     1.362057024572
O     -2.326644175261     3.596669160494     0.872636734297
O     -0.261718289104     4.385112850413     1.596080901345
C     -0.677798343175     5.706163925593     1.224433880536
H      0.140293005883     6.424538021610     1.446232997019
H     -0.896160830449     5.759613693562     0.134160607266
H     -1.580341810110     6.013892773170     1.799386910362
Pd     0.344328406153     0.895304603120    -0.101264519575
C      0.350848609377    -1.797514593148     1.437306671013
O     -0.396196927232    -0.973709485927     0.739275391927
O      1.626534950528    -1.812862272800     1.341790304081
C     -0.330137056750    -2.739557992990     2.465099332606
H      0.490344372561    -3.138465550081     3.069358222271
C     -1.018885069692    -3.905301210133     1.779332311247
H     -1.414115994666    -4.604168229932     2.545828171801
H     -1.866764704359    -3.527537561547     1.170828730971
H     -0.304913676811    -4.449111182223     1.126807371752
N     -1.298115215607    -2.132978301995     3.389239055121
C     -2.258470110112    -1.328867954765     3.109619364419
O     -2.597557171510    -0.746181687639     1.914872902586
C     -3.141384106538    -0.972803479135     4.224204480104
H     -3.588055146352    -1.906165433425     4.605872094184
H     -2.520497800335    -0.499434971340     5.002406872725
H     -3.926384202656    -0.279790978981     3.872055400498
N      1.096248771132     0.002954834089    -1.830418733951
C      0.546215624153     0.308755460443    -3.046699970630
C      1.184286891392    -0.069595828469    -4.209224663996
C      2.376553057203    -0.756100101629    -4.160504882716
C      2.900167993147    -1.063171681573    -2.932713556232
C      2.214885368686    -0.671795393209    -1.761422857129
H     -0.389804648227     0.852435349995    -3.095050825539
H      0.746212482657     0.182544157779    -5.160939208872
H      2.886974449531    -1.051203635888    -5.073443568274
H      3.821166768174    -1.600880135432    -2.827117428013
O      2.809575410046    -1.026652738932    -0.650072342785
H      2.266361369037    -1.239312802278     0.253035210442

