# STO-3G

title

0 1
C      2.740078729543     0.170781045791     3.367972969082
C      2.727836175180     1.515844247420     3.802083225123
C      3.632507137362     1.949202983672     4.794871896160
C      4.551148919148     1.045763976220     5.362537885186
C      4.567521360552    -0.293523410219     4.927074869716
C      3.671250785390    -0.729515309015     3.928942953466
H     -0.926407580633    -0.028506464524    -0.150122495390
H      2.024015743370     2.232272936578     3.380705873781
H      3.613964176691     2.986534550702     5.123500079062
H      5.245158281254     1.379542402719     6.130362995387
H      5.278766265881    -0.998249151555     5.353567016577
H      3.716320829370    -1.761986508333     3.585701874751
C      0.066426405109    -1.413238400937     3.333120654039
H     -0.516004071506    -2.117733142058     2.746034094093
H      0.786098540276    -1.841547424990     4.023030197073
C     -0.248482899011    -0.056912448079     3.375925114251
H      0.276586956028     0.578025595099     4.070753811552
C     -1.452259515449     0.551794366770     2.782429101407
O     -2.460623419178    -0.169737833749     2.560343426140
O     -1.559677740935     1.951852140787     2.841449534148
C     -2.739193189898     2.510450027819     2.247011034494
H     -2.720022718495     3.615579462983     2.357359234824
H     -2.779259261828     2.274362904429     1.159913739874
H     -3.658175408860     2.126850089671     2.745751053588
Pd     1.503620061982    -0.434788214018     1.910799902555
C      0.003418839705    -2.253154273510    -0.030650526334
O      0.159272827722    -1.004667834389     0.341234520118
O      0.822246143655    -3.175842302777     0.315873853534
C     -1.218477253538    -2.634957643645    -0.903359903294
H     -1.354974732752    -3.708136320282    -0.731021425432
C     -0.910306471723    -2.441990334143    -2.377790829038
H     -1.756614434735    -2.824907578467    -2.985570787700
H     -0.783426329954    -1.359511706004    -2.587153787309
H      0.013452087998    -2.989039816956    -2.658786644306
N     -2.499468394423    -1.981164023463    -0.638017000066
C     -2.733437599576    -0.736168806392    -0.429343839399
O     -1.860193604920     0.320817714920    -0.336082429721
C     -4.147267522528    -0.364554341148    -0.313808529409
H     -4.661617973531    -0.709559763894    -1.225854764028
H     -4.542805320080    -0.883513138900     0.575663281122
H     -4.238522667530     0.728124168803    -0.198225464086
N      3.175774287291    -0.421813869034     0.669002017367
C      3.801937590021     0.760661829661     0.379997970258
C      5.046522505272     0.755158171882    -0.214171834937
C      5.668807698416    -0.434034952124    -0.522746369893
C      5.017332262066    -1.603864021823    -0.232524175671
C      3.739833342524    -1.562105809694     0.367006174706
H      3.321605750539     1.700227351992     0.627447428701
H      5.534590359841     1.690952591908    -0.431873667802
H      6.651455754241    -0.444102685720    -0.986876753641
H      5.445975160947    -2.561663192463    -0.450364539036
O      3.214818222006    -2.739819001448     0.601503902097
H      2.150468919045    -2.886320077680     0.617086962519

