# STO-3G

title

0 1
C      2.402066699188     0.509091480075     3.189617903102
C      1.980080464104     1.841161172624     3.396525765218
C      2.811493017320     2.754048151146     4.079211759083
C      4.067525714798     2.345572670752     4.565803936437
C      4.491246264878     1.018272491687     4.362068721400
C      3.666157759218     0.104887896458     3.673566749937
H     -0.232346786666     1.499295324687     1.086656600141
H      1.014569657771     2.189151916366     3.032666252290
H      2.474310016030     3.777778444445     4.230053597632
H      4.705505551005     3.049372175207     5.095203111386
H      5.461402195052     0.691598815304     4.731662274841
H      4.018529762733    -0.911898920277     3.508222583411
C      0.534924336302    -1.748934992669     4.001430857824
H      0.212462995232    -2.728798404966     3.659896086229
H      1.413074381164    -1.714451871152     4.637298660026
C     -0.259644139356    -0.612248761344     3.823533553137
H      0.044442149407     0.312301772670     4.287647952782
C     -1.646245185506    -0.618645948726     3.326779678608
O     -2.241447644144    -1.718450622124     3.168976795536
O     -2.349056369208     0.597122533361     3.324991068235
C     -3.642915769885     0.564050432534     2.708312034025
H     -4.098852774554     1.575860099253     2.757265687693
H     -3.557171686675     0.278020322301     1.635112417111
H     -4.318104124596    -0.148548537606     3.234052908940
Pd     1.304361761513    -0.813671344993     2.155346267095
C     -0.659712558845    -2.914120017752     0.373710660039
O      0.412493876482    -2.518588582067     1.085752639526
O     -0.842609375715    -4.092681959569     0.004091144677
C     -1.703333334942    -1.794986115226     0.037352874114
H     -2.532176814807    -1.940266720275     0.740852179037
C     -2.300354346692    -1.952597599526    -1.353592190943
H     -2.880976465811    -1.045126854361    -1.619731843799
H     -1.509483090486    -2.133653423919    -2.105713004513
H     -2.983891403779    -2.827748827806    -1.367565539485
N     -1.177688854787    -0.448142026365     0.262605927706
C     -0.319209405480     0.244199425625    -0.363115415613
O      0.169062310624     1.408686693234     0.191396989433
C      0.273844163950    -0.090298319429    -1.669346034582
H      0.708105336219    -1.101585255337    -1.609527707531
H     -0.518290894588    -0.020986468549    -2.430915039069
H      1.069918209452     0.640067007783    -1.903488971511
N      2.729082707724    -0.680716972113     0.603773589830
C      3.276734540419     0.518703725974     0.228157668827
C      4.331655205674     0.544793595162    -0.661092519175
C      4.847057246522    -0.624487514019    -1.174279441138
C      4.272143703438    -1.809432214940    -0.797406980942
C      3.183935525428    -1.801483047153     0.100427941736
H      2.882362754315     1.447179677720     0.623627597708
H      4.757526624318     1.493315838296    -0.945138408586
H      5.682786610502    -0.606759471989    -1.868839497125
H      4.614834815841    -2.753465856876    -1.172435870766
O      2.680950137086    -2.983971178709     0.363181476446
H      1.673713519949    -2.963216575033     0.755421882031

