# STO-3G

title

0 1
C      0.318443620670     2.974131270414     0.319141562244
C      1.529723105843     3.523929634034    -0.155665768933
C      1.584866939341     4.877024052072    -0.549570655160
C      0.433749140830     5.685351827704    -0.478819473983
C     -0.774669805673     5.134013310633    -0.012100409943
C     -0.836532410322     3.781909561992     0.387532822341
H     -2.321777965604    -0.715954480715     0.865454983966
H      2.427905077317     2.911311024005    -0.218920242150
H      2.524268559052     5.292151077841    -0.909852656954
H      0.477621848902     6.728441022789    -0.783298699546
H     -1.669754602086     5.750303247947     0.045366585011
H     -1.782553877175     3.374898477807     0.738122408868
C     -0.510440708022     1.478166365348     2.889006322779
H     -1.066958150183     2.409727858988     2.879558587135
H     -1.063625489875     0.551715440959     3.031529477557
C      0.883374426292     1.462824866157     2.976641469886
H      1.388869985570     0.514119710475     3.105033173580
C      1.723278401216     2.660483345037     3.151591442783
O      2.973621088580     2.534147975999     3.087166460748
O      1.117505299898     3.921155422407     3.290661126179
C      2.004402744455     5.047847740554     3.294538452400
H      1.410672385206     5.981270416083     3.398655565051
H      2.717689153886     4.988796070723     4.147553451574
H      2.571431708346     5.106501132175     2.338019347912
Pd     0.267227359910     1.044404980041     0.825526414857
C     -0.659222802687    -1.846709534829     1.840450932522
O      0.365956717379    -1.109022764918     1.404878118372
O     -1.433072738719    -1.463923430309     2.764327709813
C     -1.000053043654    -3.143418639156     1.044743110578
H     -1.837650183450    -3.609371956783     1.581921740058
C      0.139457939458    -4.134363116184     0.983618184970
H     -0.228835231053    -5.088226857960     0.552098305673
H      0.941222148208    -3.747382633590     0.322861342817
H      0.544484373854    -4.325907813146     1.998287563671
N     -1.404122290415    -2.882903897921    -0.341074834613
C     -2.006403134817    -1.842830628284    -0.772166609805
O     -2.428655737060    -0.693901787347    -0.111553358641
C     -2.346345442542    -1.808326727162    -2.197691677801
H     -1.995206781492    -2.738605235745    -2.680659204098
H     -3.442039646853    -1.723256249366    -2.276600775529
H     -1.852006215150    -0.933849207124    -2.649752779230
N      0.490609319595     0.515347555184    -1.216318783320
C     -0.032576372129     1.286097328359    -2.223502508493
C      0.257587433847     0.995647209691    -3.541107760308
C      1.071393640067    -0.067049030291    -3.862391370687
C      1.562677242721    -0.838123464431    -2.844033713225
C      1.230554932230    -0.524845247915    -1.509074669278
H     -0.684345277425     2.119663991129    -1.994504398943
H     -0.155455499675     1.613163679681    -4.322000613687
H      1.305073753856    -0.297149674047    -4.898506090854
H      2.177781275950    -1.696971178841    -3.025542322063
O      1.714277017010    -1.359696708637    -0.617846231205
H      1.206025945495    -1.341440709140     0.317088338359

