# STO-3G

title

0 1
C      0.781235928962     2.784414444353     0.128054654736
C      1.948575410853     3.447921554187    -0.297720512628
C      1.878463271626     4.799744640306    -0.699402155827
C      0.649047145491     5.485384097382    -0.682337276063
C     -0.516734030448     4.815695642907    -0.261149570622
C     -0.455965269039     3.466894755139     0.145614965187
H     -1.813446368045    -0.271247020843     1.529846013208
H      2.905067673770     2.929508632940    -0.324256209152
H      2.783965474050     5.309220754277    -1.023560162095
H      0.600307896951     6.526669510442    -0.992394896171
H     -1.471520622812     5.337732257389    -0.243556049757
H     -1.363887704529     2.959210368046     0.467640455805
C      2.057356154422     1.146240196991     2.460387612583
H      2.790818707595     1.924255846306     2.272735967497
H      2.416190691341     0.120871360467     2.483911984466
C      0.761521535809     1.430496097531     2.904650563590
H      0.133800616006     0.611403079954     3.234501149336
C      0.291925425572     2.784861000859     3.248646456227
O     -0.901421675119     2.944039116119     3.613999994909
O      1.177386430724     3.872746265745     3.140884720777
C      0.612010923267     5.167339650289     3.387033681973
H      1.398281831051     5.941772939378     3.260227865140
H     -0.205591759115     5.384301124435     2.663011722235
H      0.215764354236     5.235873868559     4.425460651159
Pd     0.790722949342     0.867555518674     0.663218665891
C     -0.246532117466    -1.814405596398     1.983538488504
O      0.792053482442    -1.278742077910     1.333228887563
O     -0.651287512649    -1.374744651843     3.096123781783
C     -1.079961085467    -2.900453047628     1.233883353789
H     -1.879751273070    -3.196272670892     1.926953951055
C     -0.280900477663    -4.131030268883     0.872870098076
H     -0.968421303147    -4.912975199781     0.488614725508
H      0.444139341953    -3.887842428842     0.070307147766
H      0.254872500246    -4.521984123308     1.761924587988
N     -1.675103676371    -2.406357063564    -0.015088706244
C     -2.077961383862    -1.214579957357    -0.228214479302
O     -2.055312670438    -0.089643377029     0.593634419441
C     -2.648370472520    -0.945777046406    -1.551041103863
H     -3.516381855550    -1.613962857719    -1.679935318525
H     -2.958061430570     0.111259626916    -1.612983627488
H     -1.876984832591    -1.173598011624    -2.307196448086
N      0.703235383689     0.266458754924    -1.398925630393
C      0.203840637850     1.078082460027    -2.387238911694
C      0.347688385298     0.728765386024    -3.714315119356
C      0.993079793103    -0.433278084503    -4.068289937927
C      1.467882496664    -1.239036576979    -3.070184116603
C      1.286469452587    -0.862361281134    -1.722253099642
H     -0.323157284826     1.988719850930    -2.139411981395
H     -0.049163419703     1.377799244517    -4.477969550692
H      1.110522380293    -0.710515553680    -5.112591072859
H      1.956640857926    -2.170511977418    -3.276187577052
O      1.742450580468    -1.736605265061    -0.856613307200
H      1.365864165155    -1.629992307736     0.137433524680

