# STO-3G

title

0 1
C     -0.253620742091     2.573237580920    -0.049874481736
C      0.629632850420     3.416422596509    -0.759049154916
C      0.145967868044     4.596667104180    -1.360646579219
C     -1.217295483659     4.936624898584    -1.263443008025
C     -2.095054255907     4.095133448250    -0.554057687232
C     -1.617543841118     2.916557482732     0.057616626631
H     -1.788871979643    -1.522515035835     2.875063999292
H      1.684958413358     3.164250370038    -0.845814722101
H      0.833531427227     5.245207454851    -1.899739010639
H     -1.588425685072     5.848461380978    -1.725189330348
H     -3.147408990103     4.356288973661    -0.463358268599
H     -2.310362725648     2.289104039881     0.613349378152
C     -0.286209379266     1.356245606309     2.798036391970
H     -1.148969035800     2.012064476196     2.744398627730
H     -0.450042002911     0.349615142100     3.165695977280
C      1.020211527896     1.840770741282     2.695358795202
H      1.839073463649     1.159573451956     2.885235201725
C      1.385267178422     3.265556882334     2.595024047071
O      0.493166681391     4.150486047674     2.672811816988
O      2.722567832886     3.595229873002     2.319629576123
C      2.998098310026     4.992975230425     2.149582544833
H      4.079745395158     5.132927822618     1.936124699807
H      2.416657887977     5.409788430607     1.295311696154
H      2.750421285952     5.560754457103     3.075362337274
Pd     0.425450797115     0.865663028092     0.723029100878
C      0.374432847999    -1.859108631446     2.075111677464
O      1.289079334247    -1.020023167862     1.602420810340
O     -0.045265397413    -1.794295455097     3.273053978683
C     -0.406653650155    -2.802521905051     1.099670098842
H     -0.899042705970    -3.545465733877     1.746077528739
C      0.449766872871    -3.525730577324     0.090247147838
H     -0.153646859529    -4.320241348325    -0.395254147997
H      0.776272902967    -2.822831777909    -0.698321436849
H      1.331851963220    -3.984265451984     0.582282943319
N     -1.407991847833    -2.017433848293     0.337927939529
C     -2.316491312935    -1.343403374495     0.951395027982
O     -2.515558887925    -1.159918969999     2.295744155486
C     -3.302746699277    -0.666332043142     0.105072914874
H     -3.821301376392    -1.443992271346    -0.481396208260
H     -4.022167155811    -0.122222861435     0.742060354968
H     -2.767727249539     0.022418917780    -0.569523391245
N      0.883099388899     0.175407189445    -1.232093349663
C      0.137481702986     0.526490449973    -2.328151423121
C      0.608868229998     0.264441835266    -3.598464402716
C      1.818694436539    -0.367030484154    -3.781066348134
C      2.527225430995    -0.745001526086    -2.671647859934
C      2.007103998598    -0.472004717785    -1.389453381102
H     -0.818065777315     1.021218242992    -2.202972408224
H      0.019712639392     0.557495861585    -4.452061580036
H      2.192961789267    -0.576007864876    -4.779800370244
H      3.459662479376    -1.268761541542    -2.743256511548
O      2.728031224728    -0.949070565382    -0.395885241004
H      2.200192185584    -1.037205003895     0.510474697744

