# STO-3G

title

0 1
C      1.097451741650     2.798614980188    -0.026787085760
C      2.282859724319     3.347997404986    -0.553269173134
C      2.298860777266     4.690711600363    -0.989259919602
C      1.137025048094     5.481094741267    -0.904332033341
C     -0.047660326398     4.925744590650    -0.381624037257
C     -0.073321366417     3.585872613023     0.056928421738
H     -1.644994404313    -0.051175765251     1.620931323398
H      3.188073989623     2.748758966777    -0.629060718334
H      3.219136511813     5.113247884271    -1.388061176121
H      1.156523758632     6.516619807728    -1.235920617352
H     -0.949069495433     5.531029393527    -0.311380851504
H     -0.996892608655     3.166891496523     0.452734467582
C      2.375152521783     1.113755925623     2.268843456165
H      3.152554511733     1.832014815002     2.025965156643
H      2.657527184579     0.065087075508     2.293915801793
C      1.132577900736     1.505850910347     2.778789397497
H      0.464464514427     0.742180331508     3.156304046374
C      0.784558460721     2.895994356995     3.127733078311
O      1.654785549619     3.802291299947     3.030708319889
O     -0.525957510163     3.181643803557     3.543896903807
C     -0.813493074250     4.563192293438     3.800451902338
H     -1.874672788392     4.665687487757     4.113988822445
H     -0.169070302706     4.955802939819     4.619495760680
H     -0.659413574067     5.175689096545     2.882793449230
Pd     0.987004122168     0.899258348202     0.552212876762
C     -0.161245268909    -1.670525433223     2.032449931830
O      0.847553110186    -1.222894972866     1.278760430822
O     -0.460023160004    -1.153565975209     3.146090746972
C     -1.102472063342    -2.745575589025     1.407128858938
H     -1.847548914956    -2.976993773498     2.180794773754
C     -0.394125440831    -4.025333990119     1.027699196074
H     -1.147723315526    -4.790235438528     0.747068818017
H      0.258332983614    -3.849596300245     0.148905468740
H      0.209312420513    -4.403419440316     1.878119307951
N     -1.790914702118    -2.272808561966     0.199698318157
C     -2.142818558695    -1.070412118226    -0.041836666914
O     -1.972338756372     0.093761385017     0.704886260795
C     -2.845592450118    -0.814744194858    -1.302119395450
H     -2.956037627468    -1.763641319727    -1.858499252317
H     -3.834593233821    -0.397657560136    -1.052780469861
H     -2.253115618945    -0.094957611728    -1.888384346639
N      0.721560386959     0.269442121788    -1.489078373699
C      0.263958427782     1.113133490859    -2.471323279262
C      0.300966236553     0.726953606568    -3.795338486919
C      0.798333891288    -0.504150948207    -4.153827874519
C      1.236812569033    -1.337804757207    -3.162336828224
C      1.168118051902    -0.919768132933    -1.816047410861
H     -0.151561456653     2.078955565484    -2.220643127334
H     -0.062618486986     1.401657375289    -4.553324240087
H      0.831427811477    -0.810824661450    -5.196003359322
H      1.615185585688    -2.318695995470    -3.371269914953
O      1.583007986500    -1.820518536270    -0.957318369247
H      1.294800680153    -1.654209101328     0.057359773823

