# STO-3G

title

0 1
C      0.977179387986     2.160777839683    -0.343966027003
C      2.385201375338     2.271142983244    -0.416697111063
C      2.980554868737     3.259831244870    -1.227270480104
C      2.177650373575     4.144254955376    -1.973362415370
C      0.775992745667     4.031202000071    -1.904153535631
C      0.172824038824     3.044829186545    -1.094009292237
H     -3.399554497934     2.925893991108     0.127368145089
H      3.021867719795     1.595236843176     0.153046448046
H      4.065893321458     3.334715401794    -1.271089535962
H      2.636711384629     4.907254908314    -2.598297377690
H      0.146714208187     4.707964115418    -2.480226609312
H     -0.908585360405     2.956150960470    -1.055345052090
C     -0.799596226591     2.004066782544     2.211426498735
H     -1.062833773428     2.953003322762     1.756935095904
H     -1.614588243098     1.354092853053     2.511282530712
C      0.498351573135     1.739704067556     2.678441864397
H      0.674052412041     0.842164192673     3.256454213037
C      1.587219127602     2.731114311200     2.707820503932
O      2.727977376562     2.365510800004     3.094205978301
O      1.337061056339     4.054466767335     2.305062214805
C      2.478519815160     4.920208773915     2.248273146643
H      2.157603056992     5.927181120248     1.905494499972
H      2.947995178640     5.024310910448     3.252496924080
H      3.230340050996     4.533832577963     1.523634423861
Pd     0.127600837141     0.683629187663     0.708978074389
C     -1.631664868106    -1.770892635403     1.730045346450
O     -0.565602088436    -0.991526190059     1.946378086995
O     -1.951939435628    -2.756892900721     2.426691367041
C     -2.529967628237    -1.390831310063     0.497529278620
H     -3.551066097461    -1.682088759082     0.795423412764
C     -2.154197046641    -2.196845687070    -0.725825797361
H     -2.848143909453    -1.956027022999    -1.557139595080
H     -1.123988633800    -1.937629780592    -1.041400602960
H     -2.210892480115    -3.283504519931    -0.506100033604
N     -2.343840007188     0.011172356164     0.147143382026
C     -3.223718931019     0.922766689320     0.126896909736
O     -2.832538630417     2.207066012338    -0.211487185306
C     -4.660696237541     0.681282545997     0.408449221916
H     -5.026517232600    -0.075979718506    -0.306027934327
H     -4.756708267662     0.332900738773     1.450558562309
H     -5.234438195348     1.614815946095     0.270559334081
N      1.200885926972    -0.728559975330    -0.494102772594
C      1.412130473092    -0.533414242454    -1.834031176324
C      2.303608434526    -1.337087652144    -2.515917825865
C      2.988976379049    -2.336854601254    -1.861215574628
C      2.748576766178    -2.522759083183    -0.525492708412
C      1.821011702721    -1.690551191565     0.135427591516
H      0.878013401208     0.249469393074    -2.360051960994
H      2.467530810520    -1.169907938666    -3.567797526990
H      3.696689778879    -2.967389308065    -2.392815915752
H      3.238052877098    -3.289561326520     0.041507797593
O      1.644993192927    -1.974691071377     1.411502461834
H      0.768441483197    -1.578488378109     1.825530818836

