# STO-3G

title

0 1
C      0.899766634341     2.588491644459    -1.501448708568
C      2.065433177327     3.269868348240    -1.922550365290
C      2.088342819907     3.955737218171    -3.155140220545
C      0.947036709455     3.971261712074    -3.980716050621
C     -0.215190531949     3.294082224592    -3.564633060798
C     -0.241597158414     2.604646250680    -2.332892814650
H     -3.563230500883     1.835622271536    -0.289213822450
H      2.956377155220     3.278564564626    -1.297130659975
H      2.992644700261     4.475703104385    -3.466443613757
H      0.963989790041     4.498576741658    -4.931927484930
H     -1.100002576545     3.290748890869    -4.199330331235
H     -1.139866289574     2.070507761010    -2.034170941724
C      0.709423050217     3.619023885803     1.080986238262
H      1.673875357431     3.792416496439     1.549687921802
H      0.486453857317     4.199240385237     0.196331429028
C     -0.282435657204     2.874151300450     1.700967813797
H     -1.265126766984     2.818954876190     1.252123928183
C     -0.172995744131     2.353335944753     3.075310397835
O     -1.173302889736     1.785635152498     3.590427497744
O      0.999797806803     2.584978763590     3.816212467081
C      1.089141947891     1.896992642254     5.071790734903
H      2.057084113237     2.142875088899     5.558410417822
H      0.266448743733     2.205834944210     5.755436765537
H      1.053473669274     0.793363367984     4.919872853128
Pd     0.877608879679     1.499768989087     0.201655491175
C      0.389009353610    -0.846864721427     2.395100642090
O      1.033314330614     0.154484325570     1.851165675567
O      0.807970231873    -1.568510239327     3.339337105209
C     -1.090197753656    -1.178479546948     1.886887760984
H     -1.699980362779    -1.154692536439     2.802322771767
C     -1.178396707917    -2.573551898879     1.305473730711
H     -2.211985547988    -2.769508801208     0.953153376609
H     -0.482920010899    -2.673499916524     0.448270593748
H     -0.909553065475    -3.326232540973     2.075763000684
N     -1.546517809479    -0.246020795208     0.854108245084
C     -2.578461643643     0.500429401627     0.863204403742
O     -2.682647077906     1.449474112510    -0.128318473388
C     -3.652819023103     0.396025321049     1.876663469776
H     -4.052691687884    -0.631536469704     1.844688627112
H     -3.230460521130     0.624206215072     2.868468641324
H     -4.456439872300     1.118606732335     1.653180522722
N      1.589809211259    -0.020403319176    -1.008959353921
C      2.933739471564    -0.130708687526    -1.236024919933
C      3.406930871989    -1.076330965427    -2.123136137054
C      2.533145677887    -1.915746351101    -2.780403257519
C      1.193415868688    -1.796098707828    -2.517920055740
C      0.750443819439    -0.821462970215    -1.597869143071
H      3.623064895419     0.533652609961    -0.728422534792
H      4.466251924914    -1.152741900700    -2.303439087142
H      2.898164088385    -2.659125234660    -3.483902890922
H      0.460342356233    -2.420413223070    -2.986946048051
O     -0.546505172490    -0.804672973510    -1.386876835964
H     -0.906703408842    -0.389503741929    -0.443864375477

