# STO-3G

title

0 1
C      1.363174313549     2.903559695252    -1.474653378240
C      2.693029231902     3.231118130172    -1.821874566056
C      2.954581211678     4.023509873721    -2.960300896550
C      1.893316302087     4.495044459708    -3.756130809093
C      0.567597853176     4.165654238283    -3.412341751474
C      0.300722401848     3.370092788532    -2.278322906022
H     -0.628826557026     0.535472258305     1.778199056176
H      3.529319620288     2.873180216005    -1.223232613132
H      3.982253745133     4.269420967913    -3.220313587633
H      2.094882933962     5.107407751292    -4.631914853056
H     -0.259865948355     4.519420934786    -4.024431877122
H     -0.729236181640     3.110029153207    -2.040116206619
C      1.757659171104     3.255208744399     1.573552544727
H      2.027061404556     2.672104994065     2.448333477856
H      2.558943745112     3.732981641210     1.020525495947
C      0.427923493011     3.585144181944     1.301989617745
H      0.197168601103     4.262150012470     0.492937811452
C     -0.706880731465     3.301049150872     2.201336380367
O     -1.853629330192     3.686271823053     1.852545141976
O     -0.466362238693     2.789944745035     3.489141979032
C     -1.633358484080     2.468911445077     4.258203072455
H     -1.323533361050     2.056138279151     5.241744506524
H     -2.251887129388     3.376940371464     4.439022455438
H     -2.247734862778     1.699120108060     3.737601241394
Pd     1.061134479321     1.728952915998     0.119964831316
C      1.221994729277    -0.779652175233     1.896355137232
O      0.767698450788     0.496505026440     1.840228823546
O      2.255535861516    -1.160585825934     1.307542565098
C      0.267601556124    -1.695020970044     2.742505508611
H      0.134763119466    -1.183205633665     3.710254235906
C      0.853536241424    -3.062748097405     2.992993720235
H      0.178531807934    -3.640604221884     3.657808246919
H      0.945788655614    -3.599415999001     2.026370540699
H      1.851818615968    -2.976386866293     3.468938621039
N     -1.056401234127    -1.923030827770     2.136236551205
C     -1.832135370122    -1.051588526990     1.614076539186
O     -1.616294815621     0.314425667532     1.453850098290
C     -3.125127855757    -1.533194708459     1.121346785283
H     -2.924139766740    -2.279738370360     0.334326446410
H     -3.648666953978    -2.005182118351     1.969511418660
H     -3.713814476965    -0.689441201861     0.718861158352
N      0.610933834518     0.176983370259    -1.215439992666
C      1.653559023415    -0.498381487547    -1.791658576541
C      1.420579007975    -1.340480972862    -2.860256897343
C      0.143115916841    -1.516738377709    -3.345405750683
C     -0.884166850728    -0.848628141819    -2.731102556638
C     -0.604908174093    -0.008983225787    -1.632620418704
H      2.661855403328    -0.352961433522    -1.421635296098
H      2.247462704330    -1.861516762166    -3.313692665831
H     -0.046048524632    -2.175973265142    -4.188313510874
H     -1.901493549517    -0.951285671065    -3.050481927032
O     -1.675672892045     0.558190852684    -1.092699425350
H     -1.660885414209     0.690966829965    -0.074042210252

