# STO-3G

title

0 1
C      0.255647464191     2.469725490561    -1.124349338287
C      1.191013172211     3.459862357051    -1.491043587296
C      0.897409231202     4.369056678848    -2.530698202963
C     -0.329010047942     4.299413629687    -3.216391582934
C     -1.261475357783     3.304853022236    -2.862357884559
C     -0.971309701698     2.393035981542    -1.827998176599
H     -3.116447862031     1.037562382548     3.355225351355
H      2.155795223520     3.537986182379    -0.996594349205
H      1.631526636096     5.126185236217    -2.800703989796
H     -0.552084992883     5.003671776471    -4.014684974801
H     -2.211022942101     3.234391926930    -3.390035729687
H     -1.687317398148     1.612452022108    -1.580286374887
C      2.049659601518     2.081055088884     1.429848710707
H      2.553448822847     1.284341552262     1.969727247996
H      2.654688460798     2.612753693137     0.707168934607
C      0.825523666388     2.610268227439     1.890911767232
H      0.453976027982     3.525927180901     1.454571414907
C      0.196971154317     2.232061044283     3.169714525417
O     -0.857362094239     2.826816056170     3.514604460289
O      0.805697626555     1.275437300816     3.996183839096
C      0.002476659176     0.780161332179     5.076000233540
H      0.579550742737     0.017137206116     5.641631989548
H     -0.276488460026     1.599741178974     5.775806676071
H     -0.919411078198     0.288573440956     4.688718125482
Pd     0.518025764324     1.047582791847     0.262278530280
C     -0.159401579699    -1.495194187221     1.865266666803
O      0.775170248900    -0.543970354294     1.680613339559
O     -0.017820966346    -2.488117597338     2.604070943399
C     -1.479067241288    -1.288893666014     1.051976986303
H     -2.282751951154    -1.672771357956     1.690658051746
C     -1.463019733427    -2.071655908002    -0.240099990013
H     -2.441163816039    -1.958958380442    -0.751531694145
H     -0.667938843276    -1.682070862578    -0.904161324386
H     -1.282824388604    -3.147632953401    -0.035399679872
N     -1.706217204898     0.128297786760     0.677375727137
C     -2.386941575091     0.852134562738     1.488444937222
O     -2.824539214647     0.372946522899     2.703112763311
C     -2.770121774793     2.210436472951     1.068337366448
H     -3.389167357700     2.118982431554     0.160626325770
H     -3.348770977940     2.700354579992     1.869934338625
H     -1.861950199774     2.794807793588     0.861802368950
N      1.533167716172    -0.259269920453    -1.227155720537
C      1.318341632214    -0.158017396044    -2.577533834663
C      2.235984454279    -0.679801362521    -3.466687927543
C      3.372237028687    -1.311289553498    -3.012458644265
C      3.559903218541    -1.414335166965    -1.660190936794
C      2.594743640300    -0.877926576877    -0.781686639992
H      0.424804485340     0.323248984510    -2.952854324387
H      2.056248193952    -0.590906676220    -4.525723387192
H      4.097247362299    -1.723994892775    -3.709099780470
H      4.414247747840    -1.906593906430    -1.239072088390
O      2.874970992164    -1.052818274496     0.496831208067
H      2.071567536287    -0.873718401600     1.150902706593

