# STO-3G

title

0 1
C      0.331124977407     2.540237264280    -0.038799926875
C      1.494017705174     3.272181168419    -0.364925920885
C      1.383007592603     4.579752459141    -0.881523856405
C      0.115326329054     5.160115455755    -1.080130902680
C     -1.042713371484     4.426542229414    -0.759635925948
C     -0.939444158738     3.118948317696    -0.238708284675
H     -2.331572944906    -1.760652286382     2.594041663421
H      2.481365596574     2.836793238922    -0.217520521640
H      2.285271500625     5.137232878917    -1.125731944830
H      0.031446656373     6.168754473968    -1.477801894947
H     -2.026414361666     4.867062358032    -0.909161220703
H     -1.846280769890     2.568114513873    -0.002039256525
C     -0.590868943396     1.118131384394     2.534061583186
H     -1.273385038570     1.944685329065     2.368295870618
H     -1.038194006328     0.151377454762     2.731093313614
C      0.765307310547     1.318221523679     2.798591108563
H      1.369814070998     0.467043832799     3.083316911705
C      1.397438555174     2.638641924832     2.961874912469
O      2.651537307700     2.700692344316     3.042984057193
O      0.606372809639     3.799286591369     2.904486122671
C      1.314900873475     5.045475948752     2.939604794312
H      0.587053831390     5.882908883440     2.880115101830
H      1.890428146196     5.147907703237     3.887375264913
H      2.008108132734     5.130067675479     2.072404106788
Pd     0.516012929419     0.666447162044     0.624354421515
C     -0.184351849245    -2.096689669400     1.718901930391
O      0.898243954960    -1.387154610015     1.433811785270
O     -0.660680030811    -2.162496837609     2.895303379058
C     -1.065045647569    -2.682313696222     0.565568345809
H     -1.668484855849    -3.479087283761     1.028467103902
C     -0.296972516791    -3.259147583915    -0.596994026154
H     -0.989883178642    -3.844300693284    -1.236080517455
H      0.117378719392    -2.440030087381    -1.213565337838
H      0.518767388594    -3.920290557663    -0.239018996323
N     -1.930774850780    -1.605402281672     0.020830354086
C     -2.809090538229    -1.050405385498     0.783555983789
O     -3.043914633771    -1.238836630452     2.118097148154
C     -3.714290983873    -0.072744175836     0.173362789451
H     -4.738092930978    -0.473380527507     0.263089032329
H     -3.624447447232     0.870273818938     0.734782405518
H     -3.450394465591     0.068692088961    -0.891212339663
N      1.264578305430     0.081491400161    -1.276849746003
C      0.850313106640     0.687331122807    -2.435824362920
C      1.528895674718     0.462176462066    -3.616069588652
C      2.618438378934    -0.378599788239    -3.649653559293
C      2.992742460290    -1.001253472201    -2.489178128997
C      2.268452230822    -0.757309570640    -1.303914940835
H     -0.009378765816     1.346187332889    -2.431313029501
H      1.199781361388     0.953275778388    -4.517321212408
H      3.156751068026    -0.556805005645    -4.576880040266
H      3.813976770474    -1.689421760375    -2.452222457678
O      2.670376350336    -1.462970799415    -0.269156454278
H      1.979432964312    -1.506285179900     0.519996058998

