# STO-3G

title

0 1
C      1.570997845366     2.567932771067    -0.091201389480
C      2.752416291272     3.248099766481     0.290706081022
C      2.952489751040     4.599737809593    -0.068724961955
C      1.972795597195     5.291560792931    -0.802045612088
C      0.791103477877     4.623534984353    -1.182258975383
C      0.593578709076     3.272927171517    -0.835762902397
H     -1.384894110975    -1.085419175414     3.063481318426
H      3.514570655403     2.751542671377     0.889203611022
H      3.866549249748     5.103787356424     0.237571053338
H      2.126058425396     6.333303650041    -1.072180418733
H      0.026610750853     5.150157898579    -1.749377475209
H     -0.323077360584     2.776103026993    -1.143470333482
C      1.828134283840     0.795497490294     2.569871296116
H      2.726473987423     1.401471391141     2.650057490752
H      1.907057831080    -0.272805567796     2.743864022911
C      0.560387633391     1.374556779879     2.520112289720
H     -0.315930268213     0.746921460131     2.572359098848
C      0.287415012196     2.815053962102     2.675185747116
O      1.224030815948     3.598965600405     2.986563466716
O     -0.994771503633     3.294069289454     2.357032762877
C     -1.153564988614     4.719120477250     2.393238296334
H     -2.199139774637     4.980760147761     2.123697220727
H     -0.948220495710     5.114251692874     3.414104848521
H     -0.470759847751     5.210474501418     1.662287335581
Pd     1.214062908808     0.646176109363     0.403543361797
C      0.057294264227    -1.987656256639     1.579338361514
O      0.785937104592    -1.441477986817     0.643885629585
O      0.198461349820    -1.770813889080     2.838041691852
C     -1.229476156144    -2.747996595513     1.125720381907
H     -1.606496593800    -3.301419704987     1.999285201258
C     -1.009981009757    -3.707187884192    -0.017905550173
H     -1.967594294670    -4.210594841297    -0.263727281443
H     -0.662876399867    -3.150619060904    -0.910066853774
H     -0.253875937692    -4.468831319937     0.261469691696
N     -2.215420684067    -1.735337687866     0.669194931708
C     -2.588066084660    -0.800619234113     1.473656467398
O     -2.160648575658    -0.527862345720     2.751338443779
C     -3.594271634838     0.136943033185     0.968432737028
H     -4.495890893856    -0.446955958954     0.718054368190
H     -3.819288424984     0.885810055857     1.748505519922
H     -3.187489730892     0.624139218692     0.066566438634
N      1.023978152514     0.137377852906    -1.613731131080
C     -0.103881128474    -0.545312877256    -1.988315245853
C     -0.180491892282    -1.102235160543    -3.249756474056
C      0.872620619850    -0.985182637387    -4.131946111944
C      1.985953464705    -0.294032340091    -3.726658710006
C      2.015677071060     0.261198901904    -2.433144945436
H     -0.940875701164    -0.624193255720    -1.307726737418
H     -1.072336981521    -1.635853286392    -3.536586684568
H      0.819993315247    -1.426292701889    -5.123794657233
H      2.839653731611    -0.163896426885    -4.361353417241
O      3.140937563637     0.907073365849    -2.134308989527
H      3.067757037164     1.387821210576    -1.271142131736

