# STO-3G

title

0 1
C      1.211082626216     3.297848333249    -0.677661247198
C      2.300768022715     3.384938379495    -1.570283757499
C      2.443613581468     4.514014447802    -2.404718959631
C      1.497138727600     5.555629946066    -2.358840007476
C      0.406579452587     5.466495834984    -1.472005670347
C      0.262306129954     4.343693630668    -0.630207406311
H     -2.275548287602     0.358796267473     0.525882586997
H      3.032665587527     2.580836323217    -1.629438803602
H      3.288947432482     4.573722000084    -3.087733461631
H      1.608366742561     6.424427821513    -3.003528450097
H     -0.329323507828     6.267207220874    -1.429658698369
H     -0.587789691416     4.293274613405     0.048791617022
C      2.458924406906     2.221016709580     1.933708189720
H      2.699375212689     1.264844584759     2.391550197086
H      3.224741376175     2.674687377295     1.312962411083
C      1.321343408641     2.945449035819     2.306500777440
H      1.192487630342     3.945300468688     1.920356482218
C      0.426361173390     2.597050647521     3.425663898194
O     -0.449230229242     3.433339029604     3.769616985169
O      0.696388528603     1.457356192555     4.205303812887
C     -0.235652297042     1.194060897657     5.263443505467
H      0.063444558405     0.266538164195     5.796605958342
H     -0.246500042211     2.030267755409     5.998945286381
H     -1.262780080158     1.047862123589     4.856507214888
Pd     0.934004201737     1.669626727749     0.449300711176
C     -0.593277592604    -0.358353835770     1.889771345491
O      0.683673407362    -0.194090557449     1.575873132331
O     -1.378600891310     0.640855323695     2.007797176125
C     -1.200661863050    -1.788393210125     1.895000278756
H     -2.070607252015    -1.750432848013     2.566732692976
C     -0.249041565556    -2.855280173716     2.381140609016
H     -0.793950742921    -3.817495096698     2.474459461195
H      0.566144082663    -2.988506169337     1.640585868243
H      0.176795517387    -2.576377837099     3.366583034593
N     -1.638524825103    -2.197515451943     0.551902514927
C     -2.185022431101    -1.449333253370    -0.336735843585
O     -2.494644333021    -0.106070703396    -0.327998017764
C     -2.586153341311    -2.099911323587    -1.588588152979
H     -2.311139041374    -3.169604541839    -1.552959600052
H     -3.677346067444    -1.983733416708    -1.686254945125
H     -2.065736786445    -1.594939787245    -2.417862115957
N      0.468302826880     0.549265999072    -1.288136304083
C     -0.259889413596     1.081811409650    -2.319767481170
C     -0.280734137403     0.448169081516    -3.547009454895
C      0.402604666638    -0.732512461497    -3.738381323328
C      1.079735694149    -1.270527936339    -2.675756783515
C      1.071217029673    -0.597694904107    -1.436632786716
H     -0.800931975650     2.010317258691    -2.180844982821
H     -0.842714010480     0.885387020219    -4.355898087130
H      0.385951107967    -1.235767372429    -4.701390579192
H      1.600845559975    -2.204400046139    -2.744727576649
O      1.722021250134    -1.221201009973    -0.467487239627
H      1.434089967998    -0.904782209582     0.471543672469

