# STO-3G

title

0 1
C      0.243267124382     2.713310637119    -1.451968425876
C      1.360821612834     3.506772411868    -1.783132158706
C      1.267155945299     4.446512411779    -2.831269884393
C      0.064835466123     4.592773277465    -3.550173488087
C     -1.046819655628     3.794442976559    -3.219392871809
C     -0.963002164658     2.853932351730    -2.170549623863
H     -0.607218455922    -1.032834966992     0.189540144452
H      2.299012242967     3.397215144188    -1.241400137451
H      2.132113884924     5.057958361988    -3.080975084340
H     -0.003747822803     5.318861695645    -4.356771978256
H     -1.977741814909     3.899424176590    -3.772792568763
H     -1.825643880320     2.232638200176    -1.938080074485
C     -1.096233268402     2.407544132514     1.250787171794
H     -1.507396979083     1.661513698332     1.922493908941
H     -1.785866043133     2.814252988406     0.519382410957
C      0.143645673632     3.015607579281     1.463023603712
H      0.437970831686     3.859446418239     0.858817227855
C      1.007258571075     2.766011399572     2.629789581990
O      2.134549852534     3.321817210675     2.672627130488
O      0.569761275949     1.903270635918     3.646746094116
C      1.530518267674     1.602408196922     4.669088444413
H      1.079297462620     0.899721306903     5.402921672018
H      2.426619959857     1.103019024788     4.233698248895
H      1.841386007623     2.524621996404     5.209741703290
Pd     0.355690806700     1.311965033507    -0.038260950393
C      0.050640783604    -0.900388970039     2.575264522207
O      0.458645118270    -0.445528506985     1.356440739075
O      0.855654644901    -1.218426304537     3.471584825188
C     -1.493461386556    -1.035333431512     2.814453074112
H     -1.658341435011    -0.486611117006     3.751966841237
C     -1.863834836591    -2.482073058383     3.085386911788
H     -2.931041075438    -2.546448172891     3.384754478831
H     -1.714242885768    -3.078528635628     2.162251907180
H     -1.238923048458    -2.900534104184     3.902173232406
N     -2.479773551762    -0.539001610046     1.852010550621
C     -2.476543091162    -0.590306611630     0.575006960214
O     -1.484770486441    -0.984972015253    -0.294845591479
C     -3.709616205858    -0.157710415369    -0.090789235000
H     -4.518677498750    -0.825902088243     0.251071056283
H     -3.919488384609     0.877831501856     0.221984506633
H     -3.590240795449    -0.228366064806    -1.186845692290
N      1.556166578773     0.120027608400    -1.333486137347
C      1.425990071121     0.149903880234    -2.697736916581
C      2.424521429078    -0.363782183141    -3.500760237026
C      3.550726674915    -0.928865251763    -2.944850065397
C      3.644046508971    -0.983533743544    -1.579970403389
C      2.598621094321    -0.460379104059    -0.790235559633
H      0.544140549208     0.584663451435    -3.151814737351
H      2.315550010176    -0.322309845149    -4.571889966785
H      4.338311192945    -1.335534889859    -3.573589038603
H      4.478450815116    -1.435969756940    -1.082228668778
O      2.757277170097    -0.612771031637     0.504116379357
H      1.846437532611    -0.526314105843     1.046268997724

