# STO-3G

title

0 1
C      1.579324790015     2.792998157358    -1.329039376771
C      2.871035120539     3.240053312545    -0.974762602780
C      3.485053193899     4.275344320561    -1.711997311377
C      2.815764949453     4.867642342184    -2.799965389274
C      1.527363013174     4.420107663858    -3.152509831639
C      0.908445105658     3.384569188913    -2.421242148318
H     -1.268382962178    -0.145018466050     1.717513436236
H      3.410073213895     2.784193921018    -0.145994950555
H      4.481147587831     4.614382128223    -1.434362249417
H      3.289360167681     5.667753413041    -3.364108006766
H      1.000930193338     4.873660413259    -3.990311818743
H     -0.088848415276     3.050023988316    -2.704559418843
C      0.628578285391     2.418542441501     1.636425267173
H      0.386445536043     1.701308888764     2.413787589373
H      1.622977403157     2.851022863376     1.665353287156
C     -0.357187368515     2.948451711600     0.806523032745
H     -0.114873268755     3.757484153893     0.137668752292
C     -1.802077518468     2.717254225397     0.960537842700
O     -2.513883955964     2.824027008652    -0.072738979386
O     -2.367074766893     2.847500818115     2.240644566787
C     -3.785648470344     2.648681019754     2.313718384448
H     -4.117938398983     2.756530813070     3.367698366196
H     -4.326196061635     3.403968890272     1.699586115045
H     -4.055640159112     1.624150858330     1.968753056689
Pd     0.778305344289     1.272028279854    -0.305038700121
C      0.965623644398    -1.024310203904     1.605948272921
O     -0.013994184163    -0.386467863031     0.880024313673
O      2.174246803587    -0.849891141398     1.356025476463
C      0.469673387808    -1.887392077080     2.798216966630
H      1.381088226988    -2.271812932785     3.266772195086
C     -0.368316838856    -3.068776658692     2.342144671933
H     -0.616960230632    -3.703878142613     3.217771194185
H     -1.313387720167    -2.705681391904     1.887725805259
H      0.190191469833    -3.676215372894     1.600383399653
N     -0.282334577386    -1.172378676449     3.843969624388
C     -1.285224161646    -0.386935628152     3.674002999730
O     -1.869123410088     0.045798730210     2.514261395535
C     -1.920251624543     0.115069554717     4.895749059413
H     -2.277899527623    -0.756836386768     5.468367523019
H     -1.152550940764     0.661570362949     5.467733133301
H     -2.757903793963     0.783826167291     4.631146193204
N      1.116488424443    -0.033299555492    -1.964637750030
C      2.118874718649     0.186266449612    -2.877021393793
C      2.173221367735    -0.551864352869    -4.042149765583
C      1.233396732828    -1.523273359781    -4.301159837750
C      0.262952563184    -1.750474211334    -3.363393510358
C      0.247992728780    -0.984623252307    -2.179125313305
H      2.877297848342     0.935569679590    -2.690981207222
H      2.960345470462    -0.361069696866    -4.753283464206
H      1.270205128526    -2.104903503803    -5.218533345468
H     -0.485660463525    -2.507079272605    -3.490640438635
O     -0.701053408527    -1.330085396393    -1.328220365556
H     -0.544045281524    -0.965141742859    -0.377297078325

