# STO-3G

title

0 1
C      2.721955038450     0.234110691098     3.434592550609
C      2.437917738309     1.568369365552     3.800866881170
C      3.280307623911     2.241670150522     4.710752940836
C      4.400897017903     1.589746564172     5.260671517936
C      4.681919251340     0.259827497982     4.893561033928
C      3.848170705233    -0.418278603684     3.978967415941
H     -0.002096805217    -0.315835881542     0.184350673025
H      1.580178907364     2.091933098278     3.382555804496
H      3.056211298535     3.269664221310     4.988683833037
H      5.045353715630     2.109809933438     5.965499955610
H      5.546458677034    -0.252142834141     5.311581149912
H      4.087905761052    -1.441798156152     3.695140240262
C      0.475396010841    -1.835127744657     3.657006812050
H      0.062382826014    -2.693829530424     3.132581936707
H      1.273158353501    -2.031537761492     4.366216822336
C     -0.119278111875    -0.570569946664     3.607348918171
H      0.260048543097     0.209482595469     4.246679368868
C     -1.425991028083    -0.261583587462     2.994919591526
O     -2.141829936495    -1.192636926910     2.542791603550
O     -1.925587795599     1.045174634921     3.127572751567
C     -3.243376935069     1.264940736870     2.604847849079
H     -3.524077854060     2.330580580283     2.746012098395
H     -3.280651308546     1.035851146431     1.516591517725
H     -3.990457814478     0.633512265876     3.137441888200
Pd     1.602706031651    -0.731544726401     2.087905504623
C     -0.584535980683    -2.666605534328     0.523033238029
O      0.447597620131    -1.770958870192     0.503423953929
O     -0.555437376817    -3.693182689314     1.234932301339
C     -1.790366852340    -2.390614870855    -0.442121998307
H     -2.664201825239    -2.746978832424     0.123869783078
C     -1.674207568360    -3.276669457475    -1.666944540802
H     -2.609099151351    -3.214547229375    -2.262795792258
H     -0.831010275396    -2.921423135554    -2.293355132171
H     -1.507361379724    -4.334560350446    -1.374470260329
N     -2.134025276160    -1.069926207643    -0.954337460934
C     -1.641403738053     0.094722503066    -0.780475685982
O     -0.541430916252     0.501018738459    -0.061495773855
C     -2.351148660883     1.191787318361    -1.447829093946
H     -2.317612884889     0.994139620855    -2.532358377237
H     -3.394469362022     1.179243155930    -1.092852359539
H     -1.862853653776     2.153437079229    -1.210364510124
N      3.087612643702    -0.347134575931     0.609937290906
C      3.839530111618     0.800032324344     0.613355009950
C      4.962659238480     0.896675724833    -0.183473681747
C      5.333731110585    -0.146546396616    -1.001739152012
C      4.550801264823    -1.269453189037    -1.015751890859
C      3.403148907637    -1.325858933761    -0.197998624456
H      3.558571493084     1.635758962959     1.241144686706
H      5.549678981438     1.800200705292    -0.163115770125
H      6.216739589177    -0.074554653019    -1.631210389694
H      4.766418013799    -2.106933732212    -1.648900566048
O      2.696459535509    -2.428878322056    -0.325503633831
H      1.734561623227    -2.330200589572     0.058709529848

