# STO-3G

title

0 1
C      1.187763709618     2.939068111645    -1.455859254986
C      2.409328517565     3.210893151731    -2.117503950899
C      2.464102723188     4.126871146573    -3.189678057775
C      1.297013896038     4.786128185164    -3.621528814259
C      0.076065503407     4.524362687794    -2.970267486391
C      0.022124344060     3.608567790083    -1.897734319546
H     -1.534692772785     0.625812501071     0.095065989848
H      3.326470239675     2.715191683062    -1.802441401283
H      3.414284644616     4.323637039600    -3.682712998575
H      1.338402417825     5.493320988984    -4.446750767681
H     -0.832087325890     5.033424935945    -3.289621946355
H     -0.931885910412     3.426173809163    -1.405861063140
C      1.897740678691     3.039506140174     1.551544485011
H      2.296688617862     2.392053717515     2.324460258560
H      2.595011114379     3.642484996181     0.978263077725
C      0.523618402195     3.268989176770     1.439865431335
H      0.173827862971     4.006625626264     0.732024013486
C     -0.496050430738     2.825639792332     2.410122648555
O     -1.656900564571     3.305941588760     2.298917825736
O     -0.088912932472     2.194574377003     3.600790155156
C     -1.141544358363     1.855987911770     4.514987177323
H     -0.709373278713     1.346094742991     5.402017262310
H     -1.674327930198     2.769681870281     4.862462782260
H     -1.869332631311     1.161089264171     4.037038582195
Pd     1.209869853381     1.585924551347     0.044044724295
C      0.993140745553    -0.983631147520     1.653854880790
O      1.456034923609     0.258009079196     1.659723063339
O      1.239237027539    -1.846205619574     0.759545779808
C      0.041896916227    -1.325720542674     2.854563404511
H      0.149682567822    -0.513669982284     3.584068408334
C      0.399197125089    -2.634333503065     3.518753655295
H     -0.257760829798    -2.795171217923     4.398177419640
H      0.236875044232    -3.460771198346     2.796214595142
H      1.458822648009    -2.624520185139     3.845518378812
N     -1.369408851094    -1.445914796813     2.451821459397
C     -1.940530375934    -0.674121660460     1.618493937382
O     -1.367088833707     0.461353231656     1.053314283879
C     -3.350862158769    -0.952224448396     1.308962620266
H     -3.395439364965    -1.951078296924     0.843955718901
H     -3.903600647357    -0.948609202006     2.263115476133
H     -3.740341743267    -0.175705340485     0.628762486538
N      0.995531047661     0.081184451355    -1.411967996998
C      2.074084331656    -0.715464512439    -1.692970564979
C      1.997956959473    -1.639872724577    -2.718643430763
C      0.823151605066    -1.807986971557    -3.419139862684
C     -0.252838722786    -1.022240435859    -3.086811917469
C     -0.102009227174    -0.077511602044    -2.043100816811
H      2.994952246894    -0.594403159298    -1.134466095841
H      2.852249919007    -2.258882724860    -2.935967236561
H      0.746806655063    -2.557566333968    -4.202250853485
H     -1.201010516445    -1.151446525287    -3.563731973962
O     -1.202598374311     0.642513990991    -1.666694382648
H     -1.839433022484     0.825773260153    -2.379436558186

