# STO-3G

title

0 1
C      1.090861137507     2.767675911319    -0.927556635448
C      2.243171077454     3.505258512089    -0.582608058370
C      2.563342581138     4.683867214217    -1.290110967587
C      1.737352260024     5.132882703860    -2.337979283737
C      0.586180746333     4.397047713690    -2.680627584148
C      0.263295463553     3.215753039302    -1.981302128263
H     -1.124400235840    -0.654510117561     1.959509140728
H      2.894561768650     3.177929174029     0.225531501057
H      3.451090002001     5.249434540776    -1.014078146516
H      1.984484893022     6.045433855242    -2.875256890771
H     -0.060253385604     4.738097143443    -3.486874074145
H     -0.629617198630     2.657877639560    -2.258805115486
C      0.568842747235     1.920516285501     2.077647495156
H      1.327294302858     2.689127193255     2.181203952924
H      0.727985167228     1.006264129630     2.638000570879
C     -0.679517882799     2.190708854966     1.512528921871
H     -1.462341991574     1.449411286195     1.584939835364
C     -1.128708383465     3.529405870508     1.088581726504
O     -0.407078176012     4.535786000768     1.320487238536
O     -2.340130502433     3.642108846986     0.386227727885
C     -2.671133317570     4.958608491891    -0.077705860028
H     -3.640216524202     4.925693924268    -0.620437945450
H     -2.775044784136     5.664992832475     0.777106689325
H     -1.891409458434     5.338489375433    -0.777242632001
Pd     0.670688302913     1.055673445401     0.011186424890
C      1.100901011489    -1.505936978305     1.666357561362
O      0.097439654400    -0.807343421193     1.035354729196
O      2.302370759490    -1.273692957557     1.436798283409
C      0.631666791277    -2.545255565379     2.726047739149
H      1.556363839827    -2.964704352373     3.135404877938
C     -0.166525710003    -3.673906824010     2.098919252719
H     -0.382953568516    -4.444476780312     2.867971215235
H     -1.128915023415    -3.279880634129     1.711747673735
H      0.405132302699    -4.139874743373     1.269890577910
N     -0.145790205793    -2.032298782913     3.865229074497
C     -1.133761452294    -1.213558104032     3.846093452669
O     -1.694859558910    -0.537822042005     2.792366705190
C     -1.777654020855    -0.955335005110     5.137177705709
H     -2.151220332399    -1.919385045571     5.521321255690
H     -1.010997352213    -0.545406397081     5.815189696018
H     -2.608261917587    -0.239331429651     5.004495177908
N      1.063641747771    -0.013877701811    -1.785044203620
C      2.004144992907     0.411176975332    -2.689805814678
C      2.102757551024    -0.196443498461    -3.925150546481
C      1.270626306716    -1.240221435644    -4.261526259008
C      0.361213760206    -1.668785083897    -3.332168940266
C      0.300194446730    -1.032135612880    -2.075259723532
H      2.673770186188     1.225562959949    -2.442081249327
H      2.839274192417     0.154025925430    -4.629787284220
H      1.343128515003    -1.720172036930    -5.233968304511
H     -0.301104597849    -2.490224239129    -3.520709816182
O     -0.580674737807    -1.559570345174    -1.244372992028
H     -0.425601122956    -1.285941116243    -0.259277388237

