# STO-3G

title

0 1
C      0.911895098813     2.288736607186    -0.191184429660
C      2.274441092760     2.204527229101    -0.573881897464
C      2.889323082534     3.243071951287    -1.299139797273
C      2.159918485353     4.395856261155    -1.651604241532
C      0.816910607829     4.504876487387    -1.252538088240
C      0.200206526695     3.467885702204    -0.518312537784
H     -1.453958020458     1.837490124237    -0.964991207430
H      2.866906596448     1.336218941377    -0.292349921648
H      3.938154136105     3.153086939897    -1.576389326263
H      2.634355572917     5.197532328069    -2.212468578073
H      0.243453715477     5.397085874385    -1.495870520183
H     -0.824548504872     3.624123559658    -0.186426835878
C     -0.759558494550     2.009070067924     2.400463135711
H     -1.086894027540     2.967103377148     2.010389125605
H     -1.533003656289     1.337773391763     2.758981662387
C      0.580346455034     1.785652151360     2.782759685541
H      0.818265169893     0.884301973018     3.331656044925
C      1.636222590035     2.812807158998     2.769441057584
O      2.807653228838     2.481069498349     3.087769835174
O      1.315277367716     4.136822146281     2.423233149528
C      2.428245973147     5.023295114731     2.247032665705
H      2.054253656120     6.029178052971     1.960017042576
H      3.011813725134     5.121512444718     3.190280410296
H      3.094451154731     4.659160933867     1.432011864699
Pd     0.114884558636     0.746195087675     0.850113691532
C     -1.585795169432    -1.586432930803     2.094911379027
O     -0.431068573080    -0.901701876569     2.141399720001
O     -1.985102082353    -2.358271018052     2.989927858044
C     -2.454172167085    -1.397851022037     0.801812894427
H     -3.499761632447    -1.478134958555     1.140087127710
C     -2.190152894383    -2.517850083706    -0.184229530861
H     -2.866687381257    -2.419894583615    -1.057216332396
H     -1.142118281475    -2.456905003881    -0.543369655086
H     -2.359195235236    -3.504655123368     0.295751347549
N     -2.126811532118    -0.150533078547     0.121182239503
C     -2.912221828989     0.658166264851    -0.473342870352
O     -2.433887663437     1.776950449833    -1.082448767056
C     -4.371852172737     0.478990415964    -0.557407644904
H     -4.574308343169    -0.480831185874    -1.060600693576
H     -4.781994334477     0.495056133926     0.465433333187
H     -4.803860129089     1.308888676037    -1.147175483763
N      1.042313208018    -0.664738341889    -0.477327447141
C      1.035550122873    -0.477709714510    -1.833887119872
C      1.754081511851    -1.329978899096    -2.648769988997
C      2.476511790721    -2.372421012237    -2.109405266819
C      2.442721631913    -2.553564036478    -0.751301381179
C      1.684186920092    -1.671419966642     0.046097063992
H      0.476266481381     0.344892990466    -2.265037628682
H      1.753261198655    -1.167202304474    -3.714032668292
H      3.048787426226    -3.041495024498    -2.746482948117
H      2.963997985333    -3.356039518648    -0.268456431048
O      1.670881733723    -1.964209207206     1.333084191698
H      0.874167367384    -1.538271050012     1.852739178255

