# STO-3G

title

0 1
C      1.205714828461     2.903088319999     0.039987478581
C      2.382291334695     3.615897044176     0.359322775270
C      2.474766917520     4.996268538409     0.079559915190
C      1.397308873491     5.677067032852    -0.517976175420
C      0.223188091959     4.968882070620    -0.839759436580
C      0.127792217615     3.588888674458    -0.565968387938
H     -2.165795808088     0.096646157782     1.085568950086
H      3.230193576951     3.113104789653     0.819798955274
H      3.386618234167     5.533635446159     0.332826133356
H      1.471022754932     6.741122483123    -0.730146549926
H     -0.617105101099     5.483067941117    -1.302830475606
H     -0.786267700429     3.057554232442    -0.828533295875
C      1.585013560558     1.105997084695     2.536099870090
H      2.274675164802     1.934496468113     2.658293754637
H      1.961057124943     0.093871894930     2.666048948519
C      0.205974947297     1.311353572766     2.477590306036
H     -0.453268526476     0.454388604423     2.491971954545
C     -0.446978900569     2.620210173355     2.663866167695
O     -1.677527490719     2.727477887342     2.422242247005
O      0.333392349028     3.740377027770     3.003240573232
C     -0.348657970554     5.001643928177     3.007828570420
H      0.368104020312     5.805698201379     3.279426507391
H     -0.757458206566     5.231521386249     1.997906163924
H     -1.176166189793     5.002220747526     3.752934065529
Pd     1.050949586727     0.933386017307     0.354741416733
C      0.659987167631    -2.038414200522     1.652083069167
O      0.688953320219    -1.220096567498     0.589642911351
O      1.424838095640    -1.915128950133     2.636363450876
C     -0.374898037897    -3.207474754503     1.611551151499
H     -0.626316225505    -3.396194860226     2.665078698643
C      0.247320707035    -4.464147496200     1.047096842943
H     -0.465228377058    -5.308593391573     1.153772037911
H      0.455014185232    -4.314347458811    -0.032411387392
H      1.186455214747    -4.711718823826     1.584005615885
N     -1.596744849989    -2.985788854455     0.844420193466
C     -2.252142787013    -1.903789745914     0.795835744576
O     -1.943378773664    -0.748614230258     1.528027808823
C     -3.452428728185    -1.880631504771    -0.053195451396
H     -4.102233999097    -2.712745228662     0.266787712145
H     -3.973216596162    -0.916248809411     0.061773181978
H     -3.123942414565    -2.030898331284    -1.096922169174
N      1.082466188711     0.631763043333    -1.748588502895
C      1.795819264413     1.452640974986    -2.585551040237
C      1.625868299360     1.370669806862    -3.952153424272
C      0.746808852403     0.462778513532    -4.496619285154
C      0.064754199605    -0.366946519738    -3.649000480053
C      0.271299120327    -0.267274598304    -2.255904574737
H      2.500866276947     2.167845669184    -2.180599859143
H      2.186486413824     2.028822155216    -4.595742735774
H      0.607814589310     0.397277465660    -5.572544524527
H     -0.617444555579    -1.111716002376    -4.008196640693
O     -0.402095291731    -1.135235762971    -1.545061536031
H     -0.016568608922    -1.285683268289    -0.521874850279

