# STO-3G

title

0 1
C     -0.273673667377     3.502933843353    -0.399391655357
C      0.831093697006     4.279213951731    -0.812139984480
C      0.624607174965     5.488360307124    -1.508764580484
C     -0.681768682970     5.925485541402    -1.802327678859
C     -1.782984446701     5.148229292182    -1.395410031413
C     -1.583834561001     3.939993588071    -0.693903018099
H     -2.230297677762    -0.423401777719     0.667642942255
H      1.847689721376     3.950112412696    -0.601174621027
H      1.482650062063     6.081723327198    -1.819367700207
H     -0.838392957040     6.858136104100    -2.339412798762
H     -2.795626656026     5.477599235321    -1.620013002194
H     -2.448308217693     3.347522670939    -0.400368805093
C     -1.018416367221     2.513198020916     2.380112192687
H     -1.359027968235     1.593608711994     2.849244175131
H     -1.773038847353     3.177956115326     1.972800997613
C      0.308495021875     2.941771420803     2.461663504701
H      0.582210590979     3.912610754462     2.075496699518
C      1.359487077430     2.280361180075     3.257434546678
O      2.542892131951     2.692417483727     3.140589598330
O      1.034698938163     1.216953457613     4.116098298968
C      2.138453166384     0.578771217184     4.772253502230
H      1.756353013702    -0.241759497350     5.416937703345
H      2.838695251701     0.137644900930     4.026940706517
H      2.687903961001     1.301137831319     5.417532306702
Pd     0.026466257199     1.765741423314     0.540437524021
C     -0.558450831305    -0.932735082924     2.051954782541
O      0.406489690504    -0.140155461572     1.580436243644
O     -1.551385786872    -0.498878796880     2.705255586135
C     -0.546929345141    -2.420888436014     1.589253082980
H     -1.368135773506    -2.908733211653     2.132071717974
C      0.738946607306    -3.148798678179     1.906175629741
H      0.606020664027    -4.231058564621     1.699811187858
H      1.554287090864    -2.773850785142     1.255248922294
H      1.011280662459    -3.010530653130     2.972392579696
N     -0.768997338127    -2.566772741051     0.145453936730
C     -1.466537173625    -1.792963173504    -0.594471690089
O     -2.177326601108    -0.637350138268    -0.291721880052
C     -1.575626365984    -2.144863615782    -2.013501478581
H     -1.000215866735    -3.068577702956    -2.207254661677
H     -2.643171027818    -2.302029702386    -2.236205347244
H     -1.169844285453    -1.310888766724    -2.608010223616
N      0.628922288548     0.870358442892    -1.292768086252
C      0.130511646281     1.287924275763    -2.501052256959
C      0.667989413118     0.806921793630    -3.677786517705
C      1.706000493005    -0.096622270117    -3.657207972265
C      2.171242401948    -0.520795291037    -2.442355194400
C      1.586301490440    -0.022922989111    -1.258904035053
H     -0.694223120604     1.987204987631    -2.542996365272
H      0.270214931117     1.148772118744    -4.619389501587
H      2.134233427046    -0.475446143478    -4.581456922712
H      2.956725367091    -1.244755926505    -2.354322050035
O      2.076061465807    -0.536874728307    -0.153370002245
H      1.435397231769    -0.431516312268     0.686559876696

