# STO-3G

title

0 1
C      1.081834139018     2.865838848242    -0.836786045638
C      2.275185769955     3.555221994170    -1.142807924417
C      2.266180431772     4.600636285144    -2.091148127877
C      1.068011266175     4.968869238494    -2.731694724414
C     -0.123276074237     4.283574862844    -2.423137172194
C     -0.119002129332     3.233029415211    -1.482376238824
H     -0.080767634625    -0.212809168655     2.162350699097
H      3.211620312942     3.293983122726    -0.652874373059
H      3.190918873304     5.127191720348    -2.318217645305
H      1.061952566754     5.779259067634    -3.456672840885
H     -1.054992263514     4.559838702920    -2.912560943417
H     -1.049325702955     2.713627023688    -1.261474136610
C      1.912398608878     2.497214804933     2.245206050841
H      2.589570393438     3.285947885451     1.933140672343
H      2.335001921188     1.641252951461     2.759696891507
C      0.527371742086     2.681243319101     2.218689723544
H     -0.127554957307     1.945478571949     2.667769579980
C     -0.135620523575     3.944854255370     1.847657770314
O      0.556329631759     4.972556032523     1.619498536661
O     -1.535353560504     3.962963004762     1.734504590705
C     -2.106746196432     5.190848682854     1.261747336993
H     -3.211342256438     5.084754204545     1.203125826940
H     -1.873615147567     6.029648186187     1.956330816036
H     -1.725690316646     5.437440673285     0.244057477413
Pd     1.175331382794     1.349069914589     0.463298635544
C      1.686386966719    -1.517511469802     1.550241879654
O      1.286715008019    -0.265926157967     1.887351679330
O      2.547542698267    -1.742915681063     0.674635098161
C      0.927128453365    -2.618478916024     2.376442480879
H      1.113429114244    -2.379162861966     3.436848969115
C      1.452819782555    -4.006141829164     2.099799216098
H      0.948806616499    -4.735700429851     2.767266572368
H      1.229995565636    -4.274326087584     1.046663070613
H      2.547966896655    -4.049069920394     2.271952276113
N     -0.527730812293    -2.687861249091     2.164933797685
C     -1.366537393664    -1.732233819260     2.048362089257
O     -1.128082212111    -0.357860137724     2.053023659014
C     -2.772576474656    -2.108321499536     1.881832597244
H     -2.848869410784    -2.712421845256     0.961781970007
H     -3.060660904667    -2.711576538326     2.759067537255
H     -3.398830329641    -1.201555514080     1.806900538054
N      0.538561168576     0.082546834305    -1.075970277927
C      1.461443899362    -0.363768789861    -1.983742995667
C      1.042516805551    -1.022236389539    -3.122349616792
C     -0.298314332997    -1.245038690006    -3.347252952262
C     -1.197004121348    -0.807975171636    -2.408818799860
C     -0.726093718238    -0.152512216896    -1.252126781804
H      2.516500425646    -0.180885699425    -1.815997689191
H      1.774371419713    -1.363732256276    -3.835506430018
H     -0.634079170934    -1.761327485067    -4.242562400109
H     -2.251661097930    -0.960590657093    -2.517211404731
O     -1.682110731569     0.200539905803    -0.401853863089
H     -1.453513399984     0.203662775742     0.596600287858

