# STO-3G

title

0 1
C      1.395640696706     2.785632977701    -1.454405273732
C      2.625168853354     3.460417273135    -1.623674130793
C      2.753664254032     4.468279008738    -2.603745547662
C      1.659757471825     4.812433142874    -3.419629887536
C      0.433570382570     4.138800318837    -3.255523899309
C      0.302120981838     3.127344066159    -2.281874503702
H     -1.746207015363     0.913412229513     0.318590346430
H      3.490849218155     3.206302067326    -1.015380638931
H      3.706256409767     4.980399693114    -2.724830221320
H      1.759240140342     5.592691512346    -4.170600102352
H     -0.419670235110     4.396835839508    -3.880125723822
H     -0.652405723466     2.613852677827    -2.176700851509
C      1.894000604000     2.571830523400     1.609536496417
H      2.027590483951     1.871016753917     2.429409021883
H      2.792870269262     2.944315719803     1.128488739622
C      0.662315294357     3.152818422878     1.318363442023
H      0.607866218115     3.928095344133     0.569484894248
C     -0.546376986647     3.046195027729     2.158948120413
O     -1.537406135242     3.764355695093     1.857935853039
O     -0.470457388430     2.397720569783     3.405059912012
C     -1.680780658705     2.383605792836     4.174359426138
H     -1.504250734423     1.842673705497     5.128218422975
H     -2.007951657749     3.419579089681     4.417875396802
H     -2.492107924942     1.858719185429     3.620223936876
Pd     1.187206981513     1.313191313388    -0.110537063528
C      0.750923402182    -0.419136317030     2.606959567161
O      0.822985604083    -0.363619474564     1.267463254720
O      1.626781044086     0.072798997516     3.354462658501
C     -0.484822714802    -1.140090778992     3.239665315615
H     -0.789321733516    -0.477666589002     4.063528153504
C     -0.081198634919    -2.465435274193     3.844848852345
H     -0.937917677737    -2.891851534960     4.407268216985
H      0.191024157341    -3.168811766093     3.031573355668
H      0.777054775294    -2.336457878799     4.536803084230
N     -1.632341859501    -1.427075705916     2.386132735403
C     -2.147484874260    -0.663573124276     1.517131770334
O     -1.753853231141     0.655888470861     1.264012589324
C     -3.292943725422    -1.188321626177     0.760620921056
H     -2.929163041163    -2.051588690022     0.176931549899
H     -4.052768556357    -1.512656131352     1.491083281598
H     -3.697006076453    -0.405604237473     0.096680955195
N      1.181313312391    -0.087358994937    -1.713669826779
C      1.883828155012     0.133038435746    -2.872603903162
C      1.722623895008    -0.704948384377    -3.956581005024
C      0.863269220743    -1.777097130016    -3.893409875935
C      0.193631594172    -2.001413970781    -2.722110426636
C      0.391904017703    -1.134665861052    -1.625009704571
H      2.577989340783     0.959767178438    -2.946110956702
H      2.275444025439    -0.512092410023    -4.861550350692
H      0.731483408965    -2.437483848515    -4.746516169473
H     -0.470673201850    -2.833217572487    -2.597258456625
O     -0.262910724554    -1.467790946053    -0.546145378794
H      0.137606159004    -1.015633791529     0.404638642076

