# STO-3G

title

0 1
C      2.021487586750     1.489433935211     2.279692579126
C      1.871685124965     2.860110752567     1.976719498734
C      2.516787706856     3.834390405574     2.769132444590
C      3.309329422596     3.448961126559     3.866510384293
C      3.460950889037     2.081061507135     4.167437410271
C      2.826195882905     1.103446202627     3.374662214849
H     -0.889920115475    -0.816197679015    -1.076299275565
H      1.258321998983     3.184387560722     1.138430609988
H      2.390063673265     4.888723691996     2.531627909667
H      3.798764921056     4.202073287396     4.479394837571
H      4.073673256567     1.772142576167     5.011828166280
H      2.965537217112     0.050465948854     3.613148632237
C     -0.926313422374     0.930926316956     1.385390298187
H     -0.847882973134     1.998644687331     1.562502942993
H     -1.348118597213     0.622922669933     0.434140035357
C     -0.747836006770     0.018709859417     2.424643689259
H     -0.960342781850    -1.029353367880     2.264838043984
C     -0.532731938161     0.391747191538     3.834833259829
O     -0.610454077235     1.598932297289     4.184701392057
O     -0.193882752968    -0.617079800731     4.750844917664
C      0.099155461176    -0.176517593130     6.084304665166
H      0.358774125797    -1.054656432638     6.714115564307
H      0.965974547341     0.523694586616     6.087706013201
H     -0.784199193187     0.327879516225     6.537980884682
Pd     1.166095851853     0.083693037737     1.145108870225
C     -0.037393103702    -2.631771755075     0.259383256927
O      0.181794299953    -1.395917331268    -0.122529373687
O      0.678982291007    -3.206246757637     1.151138027029
C     -1.235458045113    -3.407239183660    -0.348338748055
H     -1.400261327390    -4.246673440306     0.334734771823
C     -0.887155552327    -3.977876310864    -1.711043513464
H     -1.726340481086    -4.607283553346    -2.074202767760
H     -0.728191661566    -3.147014648744    -2.429389397049
H      0.030547506472    -4.598846447525    -1.649612524333
N     -2.510978646473    -2.694958306753    -0.482347742840
C     -2.723204818902    -1.522093273303    -0.954936755575
O     -1.829935562381    -0.565395003558    -1.371442144920
C     -4.121199496780    -1.100170604522    -1.089138428380
H     -4.785268550398    -1.912651406843    -0.741407813710
H     -4.259111551752    -0.198274262741    -0.471874069977
H     -4.308627852394    -0.878873320403    -2.153378663665
N      3.087140578907    -0.421370523643     0.526987614893
C      3.842179301104     0.525796546690    -0.112141695372
C      5.182080699709     0.299936608239    -0.346250797416
C      5.773820071175    -0.874929934003     0.059029571372
C      4.996976512212    -1.810313023354     0.689353680392
C      3.625075505611    -1.552357633266     0.905369196943
H      3.385928531082     1.456561653066    -0.428715165866
H      5.768247623017     1.054780515690    -0.844136120419
H      6.830659225832    -1.056152908889    -0.117938698341
H      5.397358986127    -2.745191770556     1.027499199782
O      2.994541774288    -2.518627891845     1.520867256699
H      1.937540623816    -2.704892694593     1.427803748289

