# STO-3G

title

0 1
C      1.274053076526     2.984917000314    -1.258593074738
C      2.541265161990     3.017753824463    -1.880740162712
C      2.815841633422     3.974923060600    -2.879972733534
C      1.826601363192     4.896528270788    -3.272953390282
C      0.560050931898     4.859139978845    -2.659284085706
C      0.281589366725     3.910486929710    -1.652439595076
H     -1.209929572080     0.804220427207     0.273472016921
H      3.313682221961     2.302711174570    -1.601569298319
H      3.797780623452     3.993635868449    -3.348603927703
H      2.040208271035     5.633032857754    -4.043923729220
H     -0.211153664760     5.568270926467    -2.953982832474
H     -0.706168414913     3.903438728677    -1.194100744257
C      1.698281710238     2.747476838350     1.881633297172
H      1.812177095298     2.006815297054     2.668030079731
H      2.606986124541     3.176324915417     1.466710706837
C      0.463692134114     3.294947360211     1.538186971388
H      0.439964353547     4.115352079202     0.840397637940
C     -0.816887424008     3.057182218581     2.231460744997
O     -1.835149253623     3.670454779802     1.814775910274
O     -0.856687155791     2.278562704689     3.399082883864
C     -2.155751485385     2.080858524388     3.973333155189
H     -2.061864297454     1.456172103059     4.887158748486
H     -2.613926852040     3.053172980031     4.263688870485
H     -2.825480563817     1.552843662236     3.256119634316
Pd     1.009104223529     1.538573003037     0.107482613435
C      0.741078790088    -0.325462037884     2.807218697223
O      1.111123396363    -0.124491012440     1.526788039780
O      1.308106436021     0.231646867735     3.772134444762
C     -0.462575543623    -1.295114272388     3.048920068649
H     -1.164350178577    -0.711362694447     3.663708157897
C     -0.038721165862    -2.510400795218     3.839699480342
H     -0.932493281274    -3.120066849121     4.086646101805
H      0.648151153263    -3.125187721784     3.222594636920
H      0.466710789023    -2.208783497604     4.780653990113
N     -1.115088264790    -1.799869269422     1.842717671373
C     -1.598532026958    -1.047467743240     0.942218962508
O     -1.688054778768     0.350182929092     1.007186755201
C     -2.205194752696    -1.700414032846    -0.225566877451
H     -1.426056380692    -2.310502866991    -0.712826043580
H     -3.015720012366    -2.349741293235     0.145776701566
H     -2.600063531896    -0.935007377214    -0.915492017199
N      0.688073350516     0.138770178992    -1.480416152139
C      0.110049827539     0.526395596157    -2.663864573937
C      0.086684514143    -0.330448619062    -3.744110364998
C      0.643375491683    -1.584636342234    -3.658542114055
C      1.196475290056    -1.966523246906    -2.467900706957
C      1.192556429591    -1.074789078110    -1.373365932387
H     -0.355824351809     1.497908572286    -2.754719536766
H     -0.369837039035    -0.007097397689    -4.665640277658
H      0.631082452400    -2.259937769503    -4.510123994642
H      1.627308924337    -2.938503781265    -2.327714295239
O      1.705742892739    -1.569077259608    -0.283107039149
H      1.474902160751    -1.011636036278     0.626497691604

