# STO-3G

title

0 1
C      0.644682293340     3.019560906829    -0.224087953045
C      1.986944208121     3.390990152795     0.011761647365
C      2.372179492932     4.745121053070    -0.062480746719
C      1.425326638862     5.737601131442    -0.383116377691
C      0.089730555813     5.368020564686    -0.629326043581
C     -0.303005234821     4.014285918171    -0.550328379973
H     -2.081879962317    -1.163296167636    -0.122790750626
H      2.734866000194     2.636239004812     0.250231467737
H      3.409117833431     5.017258398474     0.124781738061
H      1.725025286346     6.781224763793    -0.442600638300
H     -0.649281557189     6.126876950758    -0.878715877420
H     -1.342149818152     3.755279098356    -0.743316097460
C     -1.552246262460     1.424822640410     1.338885870613
H     -1.927508708904     2.434278996201     1.209835204947
H     -2.214578412710     0.618280962089     1.041103728719
C     -0.404044448991     1.172733646906     2.087132785033
H     -0.122588272496     0.153776829554     2.318139968174
C      0.347263401574     2.203008327000     2.825493653651
O      1.427055777269     1.880177195502     3.384361640144
O     -0.120398079886     3.528692726024     2.839113702625
C      0.749792747120     4.494943741204     3.443458720783
H      0.281174057552     5.500393587331     3.381232288185
H      0.925299908045     4.255044695042     4.516576015435
H      1.724855665105     4.536904580340     2.907207272559
Pd     0.125574196076     1.088950215035    -0.154298777489
C      0.106640979296    -1.936226144314     0.534243359012
O     -0.548692790053    -0.983274418066    -0.084304281017
O      1.368988775433    -1.874166820654     0.735917133063
C     -0.676882356932    -3.158256064036     1.081503593521
H     -0.014314087635    -3.598949806827     1.833743332792
C     -0.899944821240    -4.195810325926    -0.003559381490
H     -1.368495666175    -5.099581493977     0.439119230452
H     -1.582428962258    -3.781681946643    -0.774380634501
H      0.064318574765    -4.481628387727    -0.472802384071
N     -1.971332374048    -2.916135844619     1.726311965531
C     -2.937232070649    -2.169581995854     1.334532156962
O     -3.009946058721    -1.308390809292     0.266861176760
C     -4.163345991166    -2.232403499924     2.136029546165
H     -3.905232523462    -1.934712202159     3.166096387040
H     -4.917897859343    -1.551259590856     1.706800091387
H     -4.525617984191    -3.274843757412     2.118649737038
N      1.300820184255     0.826564920995    -1.851066536561
C      0.994084470267     1.537009777462    -2.981053960133
C      1.866490030593     1.549901501724    -4.048666404987
C      3.051335108110     0.851722564498    -3.991084151674
C      3.332598266999     0.141613879963    -2.854483527450
C      2.413420334398     0.140726799761    -1.781748607344
H      0.066235626016     2.094725139280    -3.032899149894
H      1.618012301279     2.117499239227    -4.930280633471
H      3.745373863611     0.862305996653    -4.827308371757
H      4.236928892187    -0.423855284678    -2.748235088985
O      2.799271064599    -0.570917467252    -0.755577798864
H      2.130020011049    -1.021573721555    -0.040716909065

