# STO-3G

title

0 1
C      1.974666935268     3.211941252105    -0.230057943046
C      3.358330265432     3.106262420528    -0.487581656012
C      4.116105301427     4.259976543596    -0.777872728462
C      3.497652880768     5.524557778866    -0.823870694764
C      2.115694241453     5.631150476777    -0.576826923546
C      1.354434504151     4.480938799751    -0.278488894760
H     -1.983259409751     0.328052670386     0.259927265884
H      3.850329171062     2.134904138035    -0.475339312943
H      5.182801430177     4.165999321302    -0.972105280413
H      4.083840029031     6.412274145853    -1.049566685461
H      1.628522478295     6.603691404608    -0.611309817933
H      0.286995317353     4.588446242317    -0.090051984954
C      1.530459519487     1.498371944851     2.230079212874
H      1.466274073111     0.442910135221     2.482256911666
H      2.530202082735     1.905236089226     2.125849974417
C      0.416305280482     2.340653921095     2.262084528264
H      0.560097630302     3.403748835505     2.140300874103
C     -0.903644621205     1.951170935266     2.791555130818
O     -1.772690630555     2.850492532742     2.937120094939
O     -1.067170250440     0.674999044492     3.360434249693
C     -2.327171051395     0.433017359911     4.001362639841
H     -2.377961843037    -0.629085869682     4.325146682957
H     -2.444563106367     1.084466863108     4.895947179143
H     -3.172083401412     0.618766149749     3.301620033202
Pd     0.844844552666     1.597520899867     0.122254583849
C     -0.201705676966    -1.215237480004     0.828548193964
O     -0.527559077245     0.000166666048     0.470367558383
O      1.021506673660    -1.607570928268     0.799287976572
C     -1.303662928880    -2.192679303668     1.343400676957
H     -0.993251917426    -2.406896451140     2.379583134055
C     -1.240953918051    -3.509384526789     0.593333001503
H     -1.924094829305    -4.243454925425     1.070477614205
H     -1.572588669484    -3.348015333309    -0.452397164931
H     -0.212240365735    -3.925950037477     0.602132771329
N     -2.713082017588    -1.838271292275     1.382650501235
C     -3.392510759536    -0.854451020219     0.923348312777
O     -2.995598139266     0.289412250540     0.288022089925
C     -4.844229242043    -0.944729568558     1.119373138298
H     -5.033262770154    -1.031750913943     2.201739108517
H     -5.325512201474    -0.039760532306     0.709522107024
H     -5.200863715221    -1.846857949709     0.593564437110
N      1.235297484959     0.999716880068    -1.836136445240
C      0.868996267891     1.794518553906    -2.888944825023
C      1.350725111720     1.528888832393    -4.153686465016
C      2.196045800883     0.463867809473    -4.370597748262
C      2.539027093683    -0.322826448760    -3.302568953253
C      2.020846060449    -0.028798632762    -2.022409409434
H      0.209100687679     2.638516955986    -2.724293467697
H      1.061678370263     2.164005500838    -4.974895922387
H      2.579907904553     0.251470449244    -5.364889264885
H      3.188761442079    -1.168716092181    -3.406834591618
O      2.423858556743    -0.851108674543    -1.083311434508
H      1.860735635251    -1.044577666295    -0.197358418511

