# STO-3G

title

0 1
C      2.546826458051     0.668563375537     3.253289294159
C      2.072028255907     2.003038032380     3.248815102988
C      2.817720560978     3.041407829570     3.846803849319
C      4.054960512259     2.766009963887     4.461568460734
C      4.539233229805     1.443789765219     4.471951718470
C      3.792421098838     0.406708535421     3.872488478737
H      0.454397499239     0.797543622691     0.342468762458
H      1.120597035841     2.244941229885     2.777650729204
H      2.429573633476     4.058738510379     3.835677785043
H      4.628132836470     3.565352025607     4.925669287439
H      5.493030267593     1.216966082550     4.944914318263
H      4.189242657223    -0.607071804293     3.895171709227
C      0.621383066456    -1.355453996553     4.339388251005
H      0.421625706280    -2.419046384188     4.253324342402
H      1.388577944161    -1.037026937650     5.036247807782
C     -0.240051962389    -0.418077915087     3.757846311875
H     -0.088687061635     0.632825348579     3.954339457385
C     -1.537526800536    -0.743620668062     3.133504180326
O     -2.005440258701    -1.908704021882     3.253402848009
O     -2.362265710203     0.323620701327     2.732058099621
C     -3.636496774544    -0.046011380769     2.185126190978
H     -4.187294218403     0.869085006303     1.881248601534
H     -3.510768224684    -0.689761637371     1.284548949746
H     -4.249614243410    -0.587349931298     2.940660519043
Pd     1.528018042386    -0.852787625388     2.394779012429
C      0.246211178848    -2.638449504549     0.320028013133
O      0.453935694800    -2.490328874873     1.622468188485
O      1.158613970484    -2.788265994189    -0.545433112251
C     -1.262406037268    -2.569085818943    -0.115659639519
H     -1.868401314305    -2.721113172704     0.786923165735
C     -1.620242246083    -3.639714694223    -1.120204828974
H     -2.707435223899    -3.597282574726    -1.337662600744
H     -1.059697991521    -3.454692159318    -2.059635430211
H     -1.363241478997    -4.642444080560    -0.722167762265
N     -1.652794193803    -1.292658734844    -0.734240220139
C     -1.165738238424    -0.150308414964    -0.474654522010
O     -0.246339209761     0.131097778185     0.536450728195
C     -1.686721842495     1.006217608973    -1.220034637451
H     -2.440119939716     0.656483802384    -1.949269238003
H     -2.142891893930     1.690402138995    -0.486797751582
H     -0.840452424920     1.485550535004    -1.739206179562
N      2.894682720650    -0.831181198680     0.788984228091
C      3.642024849819    -1.958327375218     0.568984280787
C      4.635997357918    -1.947075062566    -0.392909942790
C      4.833179445799    -0.831496546651    -1.178165605892
C      4.035791557450     0.265694266176    -0.964339331690
C      3.052352136466     0.197486944841     0.050746962234
H      3.480606375730    -2.840859186640     1.177088637664
H      5.223519457223    -2.835210033673    -0.554978068497
H      5.586614756135    -0.830313535509    -1.961256709800
H      4.103360071789     1.133228833568    -1.585808350190
O      2.203365499657     1.261046551689     0.183663754245
H      2.623123681993     2.134506311723     0.089070650903

