# STO-3G

title

0 1
C      2.501388152900     0.829486235834     3.180062530684
C      1.911637908489     2.117959507141     3.276985294820
C      2.582831836720     3.181412982257     3.921695653327
C      3.851190484049     2.976031943015     4.491798927675
C      4.450983212016     1.702970286659     4.403914061491
C      3.787179777025     0.646377543668     3.750858213808
H      0.664920425386     0.906171894755    -0.180515695732
H      0.926872158804     2.310323449538     2.851702623027
H      2.111133811696     4.160548221558     3.974502110407
H      4.367035337907     3.792011182808     4.992053640396
H      5.434482906925     1.534422343956     4.838135951844
H      4.274853690249    -0.323790658031     3.684877165666
C      0.666570684642    -1.265491167435     4.263990318607
H      0.525145821565    -2.339496732959     4.192865441573
H      1.411986835639    -0.897622410762     4.960008735816
C     -0.235679330837    -0.384312505837     3.656972960929
H     -0.137532021959     0.674131174540     3.843073737010
C     -1.525320496197    -0.779966523656     3.058786407841
O     -1.963869549816    -1.947176654213     3.243099030649
O     -2.365196020771     0.244482334810     2.585086709927
C     -3.667231431262    -0.170235541979     2.145193430352
H     -4.230029106086     0.710689218786     1.770351942981
H     -3.591292906057    -0.908891197782     1.314697176402
H     -4.243266464999    -0.621979690067     2.984123576061
Pd     1.564842834758    -0.754943030562     2.311997693690
C      0.299333235653    -2.672493663539     0.279786351372
O      0.507273630313    -2.393844152731     1.565084533259
O      1.190690626274    -3.009303293958    -0.547129432565
C     -1.208159147122    -2.544058386058    -0.140775907738
H     -1.805840370387    -2.877630925909     0.718932823772
C     -1.562947711417    -3.414142783819    -1.326242576564
H     -2.653728308207    -3.354973789490    -1.521933076428
H     -1.016820541231    -3.048246244811    -2.219710778416
H     -1.283303898218    -4.468761312829    -1.126535463025
N     -1.674980276216    -1.200510932808    -0.483211264094
C     -1.102418842433    -0.078676957840    -0.387263117424
O      0.152726837901     0.163556780791     0.204604737862
C     -1.841032226180     1.111503370165    -0.840581139015
H     -2.818549755087     0.796434064910    -1.249263781614
H     -1.983888070460     1.764828308881     0.035355539953
H     -1.244179255474     1.612761336177    -1.620977322018
N      3.080078638110    -0.909163603816     0.841085018190
C      3.615782454183    -2.143781680284     0.579983186398
C      4.518251557503    -2.297600871967    -0.455747600693
C      4.838003361827    -1.230348695337    -1.267202597843
C      4.270980960236    -0.012645393466    -0.992079742182
C      3.383020273401     0.097025688136     0.095396140028
H      3.350843555873    -2.991102821005     1.201873816082
H      4.927766365557    -3.273033087139    -0.657874594819
H      5.519783919128    -1.352143912592    -2.104375967637
H      4.466231413405     0.857212306863    -1.585109839367
O      2.874819097084     1.327336180932     0.282938030771
H      2.523144208221     1.425277768984     1.209585131945

