# STO-3G

title

0 1
C      2.057022509203     0.379657918292     3.039140240405
C      1.582312745303     1.707327916275     2.953205914757
C      2.062053241277     2.680299639870     3.854472200783
C      3.011216252444     2.334237090210     4.836205042513
C      3.482281143659     1.009831243467     4.914787236018
C      3.008942072252     0.029182225446     4.016309391007
H      0.395751837176    -0.850335176518    -0.662521488603
H      0.849637871806     1.988440685636     2.198747984114
H      1.691408884562     3.701071200812     3.790255368890
H      3.374845679384     3.084519601507     5.534237681070
H      4.212632233187     0.733280940730     5.672521767411
H      3.386444329784    -0.989083668066     4.085698143156
C      0.277426143928    -2.182859160563     3.128570360910
H      0.756276953475    -2.135821920999     4.101634563910
H      0.355934677975    -3.121974058336     2.585254039605
C     -0.618932830498    -1.194048484809     2.708438781662
H     -1.202200395715    -1.339889221064     1.809599257716
C     -1.080920697297    -0.078030457234     3.553626681992
O     -0.717287829950    -0.008339329442     4.757025327714
O     -1.867388140929     0.927464784566     2.966476065454
C     -2.234638389578     2.014920674025     3.827109169671
H     -2.849714503189     2.745185954745     3.258431730764
H     -2.837803638383     1.650328153567     4.689750451106
H     -1.329606868336     2.541712852574     4.207722497717
Pd     1.421003981426    -0.932116958826     1.685256962597
C     -0.348562946663    -3.134414692359     0.005768766940
O      0.712578053371    -2.273394181285     0.015941967960
O     -0.351135958104    -4.197408923681     0.656988303946
C     -1.575055858113    -2.689022941111    -0.844840587502
H     -2.369834826319    -3.391603118755    -0.575241376120
C     -1.307349618313    -2.834794581198    -2.332511960066
H     -2.231964819219    -2.598880979275    -2.899493943187
H     -0.509763848954    -2.128114211770    -2.641327217157
H     -0.993848094645    -3.872845159932    -2.568692164924
N     -2.101507441337    -1.334847894586    -0.610803356999
C     -1.463337161682    -0.221922307120    -0.631103114772
O     -0.117045235384     0.015844269161    -0.764678508118
C     -2.276635453880     0.989502439178    -0.493882627037
H     -2.990834624139     1.007249271476    -1.334180575179
H     -2.818551521702     0.922102750842     0.464375197158
H     -1.626684761383     1.881986282158    -0.514044550911
N      3.206409314568    -0.649573900889     0.550004654136
C      3.916304044212     0.523931647404     0.556981938455
C      5.207867194055     0.556799617236     0.070741179343
C      5.794401134873    -0.579193182930    -0.439822847588
C      5.058196628221    -1.733078140610    -0.467060821544
C      3.737118539119    -1.726452782044     0.027480076045
H      3.469876922394     1.430974502940     0.943110488361
H      5.756959394965     1.483848331423     0.091274890599
H      6.810792319228    -0.557138497140    -0.823965137035
H      5.445284315868    -2.646292074823    -0.873131947745
O      3.108188702536    -2.876369151107    -0.088230379295
H      2.068456564508    -2.796199764091     0.013310997230

