# STO-3G

title

0 1
C      1.554652204372     2.497887624716    -0.756385210475
C      2.695087651426     2.808210997523     0.018463419435
C      3.583465489072     3.817219644198    -0.408801228129
C      3.339879491552     4.519333946586    -1.605260649137
C      2.204422609035     4.206595416901    -2.376919296161
C      1.313180105404     3.195655831878    -1.957488749462
H     -2.357925801163    -0.229807787275     0.903627491284
H      2.898058291159     2.277645139129     0.948289765038
H      4.458623340158     4.051388028201     0.194042849120
H      4.024279954874     5.298941416479    -1.931493121327
H      2.008584224940     4.743235161763    -3.303292706682
H      0.446648044094     2.959100822329    -2.572405107912
C     -1.335593009101     2.354202725396     0.234040919074
H     -1.236342726493     3.228337031811    -0.400177051522
H     -2.152636805936     1.678684311885     0.000501701627
C     -0.662734927459     2.245235596697     1.455546680422
H     -0.922337101967     1.440772581290     2.129219864641
C      0.147790668798     3.321934125833     2.049421259389
O      0.785686771215     3.087192456115     3.108065806209
O      0.250631109579     4.559473054924     1.390069829769
C      1.132591516036     5.519272751280     1.987907664546
H      1.136127106931     6.445845155931     1.374626700771
H      0.795167235957     5.780899893761     3.016355463946
H      2.174276379566     5.128144932332     2.027011743227
Pd     0.391845262211     0.993494246844    -0.150637460910
C     -0.375876114918    -1.414868184242     1.537319798840
O     -0.913653366700    -0.630206959230     0.543850141395
O      0.837277575477    -1.367280236426     1.816201542321
C     -1.384098642081    -2.312165886487     2.312617619824
H     -0.779006792540    -2.818078923930     3.072122509199
C     -2.002419027310    -3.369369826146     1.415912371184
H     -2.620335551537    -4.057926863522     2.029296047259
H     -2.655942261575    -2.882216402071     0.663089311316
H     -1.211656787929    -3.953450590733     0.901303093652
N     -2.483555057645    -1.640603227382     3.021029407544
C     -3.232589973019    -0.685330524530     2.606721921671
O     -3.189930596597     0.018788166530     1.430095947999
C     -4.307902367728    -0.274549139746     3.514068817514
H     -4.951163194151    -1.153510420188     3.687345170840
H     -3.839247882532     0.047490957718     4.458860641219
H     -4.885597962630     0.550541267115     3.060921315045
N      1.296110724610    -0.303535068749    -1.592862494437
C      2.591164783145    -0.146196221427    -2.018727564895
C      3.052890230641    -0.851744597602    -3.111682307649
C      2.228308558978    -1.728552940265    -3.779661060505
C      0.949142742732    -1.892086182377    -3.320009715200
C      0.518367426077    -1.162898221361    -2.192408167156
H      3.259717413482     0.530069482366    -1.502045878432
H      4.069945732378    -0.712205610747    -3.440173685998
H      2.587269016497    -2.285486576140    -4.641186662472
H      0.261868530992    -2.573771793633    -3.780399027171
O     -0.720468341432    -1.432380438705    -1.817027071559
H     -0.933825014521    -1.114056301473    -0.858669412772

