# STO-3G

title

0 1
C      1.585494588401     2.919089022214    -1.102319845809
C      2.915624351115     3.304461194831    -0.831536085232
C      3.517642458471     4.333310301664    -1.587564839843
C      2.795608128285     4.983316950970    -2.606876193990
C      1.466159446162     4.599732634064    -2.872060335352
C      0.860063622007     3.568666989849    -2.124159138339
H     -1.096419805491     0.156779468535     2.165490544126
H      3.490831214159     2.808693792173    -0.051611916617
H      4.544983094122     4.623761055403    -1.376732334480
H      3.259912712447     5.779509295955    -3.184117557172
H      0.898517502031     5.099873223544    -3.654605848593
H     -0.168260518271     3.281253444401    -2.338998320918
C      0.874963760950     2.344760104379     1.953205302780
H      0.543020820352     1.517380722759     2.564281449432
H      1.892878135546     2.686603384226     2.109843856830
C     -0.017768164804     3.139975306504     1.236567176077
H      0.308580783819     4.090157252244     0.847887509688
C     -1.454667319019     2.879732285213     1.087309329334
O     -2.236955836678     3.861857368405     1.167590312594
O     -1.779475833907     1.796369012840     0.257123801615
C     -3.177923540909     1.502162888794     0.145506577947
H     -3.314230381699     0.612498206532    -0.507424913135
H     -3.608919601646     1.263293502645     1.144822630951
H     -3.731804704918     2.355167655456    -0.308084349023
Pd     0.796809650725     1.393225362751    -0.077325953209
C      0.894156393927    -1.109427831618     1.689684236346
O     -0.033231114898    -0.282927831258     1.105882441165
O      2.099972959190    -1.066415201914     1.379374767762
C      0.346720451736    -2.039569667468     2.811741421957
H      1.215744870233    -2.611804387561     3.152543946984
C     -0.690299454958    -3.014250053686     2.285043291643
H     -0.968655047514    -3.727569572271     3.088643831260
H     -1.598473424952    -2.457799418213     1.973808825234
H     -0.286763165177    -3.580761673513     1.420460805012
N     -0.226423480426    -1.388126939952     3.999773191687
C     -1.018165181638    -0.381060554988     4.058405173931
O     -1.509395621202     0.417980448088     3.054330650831
C     -1.482745395757    -0.009055875592     5.397838262856
H     -2.018444422373    -0.877196630798     5.817221583550
H     -0.592783061245     0.220246611724     6.006926290503
H     -2.150923709871     0.868292311249     5.332996295064
N      0.825342247260     0.172063512703    -1.823316926490
C      1.746112605577     0.357818199091    -2.823765001384
C      1.610959035533    -0.308903722093    -4.024710057303
C      0.561718628377    -1.175386196373    -4.230989462759
C     -0.327356911598    -1.370616555713    -3.208681830141
C     -0.150239946641    -0.679344293544    -1.991576844287
H      2.585973748653     1.025642508377    -2.679279428388
H      2.336571159338    -0.146082757824    -4.804826168956
H      0.450581477762    -1.701791255670    -5.175293246466
H     -1.152396735879    -2.049156087294    -3.294369312426
O     -1.040458195886    -0.989689812117    -1.066030015818
H     -0.757716246544    -0.680214721299    -0.118964690172

