# STO-3G

title

0 1
C      2.359821796316     0.171716727855     3.166354846583
C      2.207229893487     1.574934202747     3.251171823219
C      3.200691204383     2.363615393715     3.869849871220
C      4.348611809650     1.760066859854     4.417708796600
C      4.500757690469     0.362234241160     4.339569976739
C      3.515589173725    -0.428752774045     3.712276828665
H     -0.078521488065     1.473477268978     0.647293942221
H      1.318875581822     2.067654210460     2.857937350317
H      3.070527297483     3.442550697956     3.929390135327
H      5.111253569482     2.367813703453     4.899024307339
H      5.385031653436    -0.115485004337     4.757136744871
H      3.660925599087    -1.505306145593     3.640957973601
C     -0.174246120303    -1.664760618986     3.926185354872
H     -0.811173148342    -2.406051455709     3.455221995563
H      0.614897620889    -2.034655709162     4.574575688922
C     -0.452377191225    -0.299711697949     3.862702387639
H      0.153762926006     0.373451394544     4.447201972255
C     -1.688485065383     0.304033145879     3.332218329030
O     -2.553142261316    -0.417780001075     2.766931199435
O     -1.955864496578     1.642514286741     3.666464678824
C     -3.158127048371     2.200971843928     3.120819748434
H     -3.266330422639     3.250085003799     3.469911297145
H     -3.113906748350     2.215096992024     2.009698646847
H     -4.052434493346     1.627909954536     3.455080078372
Pd     1.026538309002    -0.977414229231     2.198046606651
C     -0.037520961722    -2.707984364866    -0.010874174673
O     -0.349944869059    -2.292989693549     1.182757057657
O      0.661463240777    -3.762477716884    -0.226436851278
C     -0.496085870182    -1.778986609296    -1.186839530969
H     -1.516222102068    -2.100755003154    -1.471579889377
C      0.399536311113    -1.875178466850    -2.398861516959
H      0.029616852807    -1.186965533107    -3.186155364168
H      1.430020886179    -1.571500441650    -2.120004520954
H      0.410776168009    -2.912446118951    -2.792280573298
N     -0.380140007436    -0.417206620337    -0.674371294484
C     -1.326230261619     0.308896679589    -0.234105637995
O     -1.046596340897     1.454598270914     0.472258452404
C     -2.758979643608     0.014197287239    -0.408744249219
H     -2.963483244757    -0.082905530921    -1.487216755971
H     -2.980865947332    -0.916729190496     0.141463863180
H     -3.353838383731     0.840759088865     0.015647156446
N      2.498427518486    -1.166560290788     0.705894496493
C      2.906243043265    -0.033362062739     0.054022592690
C      4.048987532093    -0.060007947456    -0.720361167006
C      4.782572807846    -1.218999429390    -0.845272748659
C      4.333783953557    -2.345266626240    -0.205853541792
C      3.148216744347    -2.283718828184     0.558648006445
H      2.341575825196     0.885264989459     0.160706461991
H      4.368298017118     0.839676956775    -1.219714039351
H      5.686991307094    -1.242796326312    -1.447171341426
H      4.843091024874    -3.284678320555    -0.281116356508
O      2.755493602151    -3.435096959534     1.092280919680
H      1.803070902295    -3.732118567169     0.763195418158

