# STO-3G

title

0 1
C      0.894930325183     2.817307452827    -0.139849589980
C      1.959767417362     3.506292536631    -0.751422327883
C      1.773572344836     4.837913215659    -1.182829384816
C      0.531322138636     5.476353154209    -1.007253485006
C     -0.531419968336     4.780469809398    -0.397260247955
C     -0.355994440667     3.450773546663     0.037344333516
H     -1.355555419098    -0.099697339508     1.917658052877
H      2.925668772805     3.026043109362    -0.895026887184
H      2.600901334907     5.370614701153    -1.647773348618
H      0.395519309981     6.504166817726    -1.335655129311
H     -1.493232298933     5.269163432840    -0.255875951580
H     -1.184001237169     2.918388800811     0.502047539712
C      2.576800984465     1.295735035307     2.003627720357
H      3.253167922043     2.076775697335     1.669640898019
H      2.957328508114     0.278194266213     2.011405335447
C      1.365261934831     1.583171725460     2.643083483176
H      0.820174611904     0.769950798889     3.104892577037
C      0.928427069539     2.942610315326     3.012930663307
O      1.693788972303     3.922795920882     2.808342328510
O     -0.343958461009     3.114301069210     3.581760208936
C     -0.733808217478     4.469317836260     3.844195138138
H     -1.754951339886     4.479455357055     4.282353883521
H     -0.038277401263     4.947387710221     4.570742183794
H     -0.751631167531     5.064217168589     2.902501169598
Pd     1.041147155541     0.925107046793     0.450962859404
C      0.228408447587    -1.676257666593     2.074685693800
O      1.138492695764    -1.188732329857     1.226605395327
O      0.043103577411    -1.189537435201     3.226269323456
C     -0.759297558703    -2.756746433668     1.533663144909
H     -1.404870659680    -3.021552483422     2.382515597428
C     -0.078440809082    -4.012465316891     1.041118910733
H     -0.846239330785    -4.786835477939     0.834890937788
H      0.459596587986    -3.804590855974     0.094675453534
H      0.630097730182    -4.396014150427     1.803462510969
N     -1.591593684218    -2.267227679783     0.426618120158
C     -2.006469293526    -1.070277660857     0.277406808639
O     -1.785876053120     0.069517015388     1.049064738385
C     -2.851645687733    -0.788400553993    -0.885836572673
H     -2.988656365142    -1.715926466029    -1.471673613067
H     -3.821545327014    -0.423210104372    -0.511270666601
H     -2.353234611666    -0.019660304626    -1.496907236938
N      0.672108760665     0.235378480997    -1.560598534373
C      0.104106388035     1.029434650551    -2.526934477016
C      0.092798376471     0.624721532500    -3.845738756809
C      0.649648045112    -0.576781542658    -4.216075923241
C      1.198982458411    -1.362122092596    -3.240784780650
C      1.180015022237    -0.926327638531    -1.898379573829
H     -0.360982123859     1.969800963396    -2.267080833184
H     -0.357684840945     1.260766436591    -4.590384250434
H      0.644035662359    -0.898249196131    -5.254296710404
H      1.631250254693    -2.318447446287    -3.458857005180
O      1.707873788305    -1.782139354450    -1.056677218750
H      1.495387994210    -1.611642453980    -0.023598341189

