# STO-3G

title

0 1
C      1.431907753815     2.554703552421    -0.414899224183
C      2.812930920534     2.693976075951    -0.150000664893
C      3.601609070891     3.554783890440    -0.942090344346
C      3.018510530212     4.278785399093    -2.000058196533
C      1.643562395697     4.133151688978    -2.267143544439
C      0.850379537043     3.270102191606    -1.481049960456
H     -1.890814921375     0.142071291874     1.341696591612
H      3.281226208470     2.150025585408     0.669993885416
H      4.663951590593     3.657108025315    -0.730134332506
H      3.626206853882     4.942922435670    -2.610045518653
H      1.185061340372     4.681655416323    -3.087597324360
H     -0.205029256401     3.151027089169    -1.717053722348
C     -0.929919492654     2.838264366881     1.582991605103
H     -0.989527515631     3.666934102643     0.884521446965
H     -1.831812563572     2.240184736318     1.683757813190
C      0.130576158224     2.693610240567     2.482676658330
H      0.072614559292     1.926406360686     3.241834813371
C      1.214316337193     3.677689044835     2.643223008846
O      2.182576012897     3.392798170277     3.394643823866
O      1.191224543739     4.866243695191     1.893182604435
C      2.347786096137     5.706081687145     2.008594716931
H      2.215500621088     6.602400440738     1.365238338345
H      2.488024197221     6.046313351288     3.059502968348
H      3.261200781284     5.169455071704     1.666002533576
Pd     0.413586299265     1.268581668528     0.725846465695
C     -0.385448065242    -1.419853644425     2.025145143731
O     -0.668749005365    -0.093194597868     1.990678204209
O      0.766185613404    -1.874406924241     1.862346056444
C     -1.676065086270    -2.286573594140     2.253520350154
H     -2.152857059005    -1.885948669598     3.163504348774
C     -1.356730649391    -3.744258554882     2.478589212351
H     -2.288997650170    -4.297571504397     2.715974739022
H     -0.918445739308    -4.166333391237     1.550942924408
H     -0.638654301300    -3.859888326587     3.316330222048
N     -2.655204706755    -2.250123395024     1.153467189200
C     -3.059918018893    -1.235237398499     0.492159752460
O     -2.656862533761     0.094946943106     0.607495935394
C     -4.080392955633    -1.480519367965    -0.529948267309
H     -3.654542381842    -2.187644201341    -1.262155927920
H     -4.951421538672    -1.932986175669    -0.026717454444
H     -4.360262462809    -0.531371009303    -1.020310865578
N      0.563416057152    -0.105995601781    -0.852294332023
C      1.722654385450    -0.819033978868    -1.002551611662
C      1.942396405671    -1.536363589678    -2.161284713467
C      0.997784520772    -1.550601520002    -3.164167388833
C     -0.164650188295    -0.848966753519    -2.973760322627
C     -0.355916278719    -0.141026551360    -1.768868818136
H      2.473652281550    -0.800462502537    -0.221180175175
H      2.860791939321    -2.088058363327    -2.275507743246
H      1.166557633990    -2.111747015119    -4.079313359373
H     -0.944276590937    -0.830681766968    -3.707951847643
O     -1.531288098961     0.470208828815    -1.677698631367
H     -1.947972260016     0.538496565181    -0.743930485361

