# STO-3G

title

0 1
C      1.377951657319     2.827492894432    -0.529699666614
C      2.718908036668     3.224588439823    -0.347426184809
C      3.137881053306     4.505474518360    -0.766565228278
C      2.224442978097     5.389910425620    -1.371595509652
C      0.886694027146     4.990208738159    -1.557497045594
C      0.460349466388     3.711796293725    -1.140468979507
H      0.270980165758    -1.447558175261     2.053816276686
H      3.439497131152     2.550544811854     0.112322675075
H      4.172579471499     4.807335550926    -0.616076238222
H      2.549185250330     6.378325864663    -1.687973548677
H      0.174087260671     5.669832643000    -2.020079258390
H     -0.577102372228     3.419292479503    -1.294122649066
C      0.928549596375     1.433681787462     2.137509308270
H      1.641224402321     2.238956486843     2.279916934240
H      1.224654873007     0.450601751396     2.489914524739
C     -0.407708559520     1.684950096110     1.806821065066
H     -1.119206478563     0.872646269532     1.837195352909
C     -1.009548951542     3.028217136462     1.730541996478
O     -0.322259413044     4.042446746870     2.021176518567
O     -2.337975538660     3.146550789408     1.291608450556
C     -2.854050102562     4.482509140250     1.208809625815
H     -3.905590069651     4.449210498344     0.850219368994
H     -2.843444300663     4.973366464024     2.208545280498
H     -2.259779956787     5.093239860010     0.491459014783
Pd     0.756736053187     0.993810608652    -0.047165717436
C     -1.232251372022    -1.304301276177     0.146796232950
O      0.052520757907    -1.009746808213     0.552728993538
O     -1.793661122564    -0.656166179366    -0.754619005942
C     -1.870229693211    -2.430335611598     1.006713572526
H     -1.133297505902    -3.252671040661     1.038176818726
C     -3.160440850000    -2.943917910386     0.417953359274
H     -3.538886202338    -3.785612241595     1.034145480255
H     -3.915038616607    -2.130053112433     0.429090193375
H     -3.001920397056    -3.292865501375    -0.623121601882
N     -2.192992419897    -1.971988405766     2.376320642538
C     -1.286763865676    -1.645863545809     3.228892154913
O      0.066893842451    -1.534437092176     3.044035126250
C     -1.746027888193    -1.347554023407     4.587854410367
H     -2.258189419911    -2.246324590699     4.970680028116
H     -0.877355140190    -1.093820295394     5.219436443240
H     -2.450998573631    -0.500410245826     4.530715225490
N      1.685510365463     0.206055425105    -1.809594358965
C      1.882397427969     0.959377725617    -2.940374905437
C      2.693057626445     0.491911927471    -3.955036140366
C      3.305085804302    -0.736517344860    -3.854165535370
C      3.071811641042    -1.485114279754    -2.732436826339
C      2.227445962539    -0.979174654370    -1.722254114601
H      1.401849884958     1.922587410751    -3.049346694330
H      2.844849586934     1.098717026648    -4.832852187623
H      3.945711661599    -1.107765730244    -4.649795640296
H      3.499942333153    -2.458831410651    -2.599258777347
O      2.046968121804    -1.806926960438    -0.710050751408
H      1.244874535880    -1.557425561468    -0.106265690621

