# STO-3G

title

0 1
C      0.825388581894     2.869549087047    -1.867344001821
C      1.718044318426     3.932456113876    -1.601441988411
C      2.017487807481     4.873455790132    -2.609234187242
C      1.427725823682     4.764230747584    -3.883299505164
C      0.539129882159     3.704761004371    -4.149499212278
C      0.241026655974     2.756832184527    -3.147821597696
H     -1.690606661037    -0.285231024766     1.010825624779
H      2.188906112064     4.034054730988    -0.624457878173
H      2.705594781116     5.688865559655    -2.394366071583
H      1.656551646443     5.493801253379    -4.656649573006
H      0.080088798141     3.610391916246    -5.131795038320
H     -0.436031027841     1.935029634338    -3.375926737142
C     -1.520163140517     2.437171869774     0.059299641425
H     -2.123355830532     1.666237691503     0.530253540100
H     -1.846938457979     2.777797660541    -0.918250597941
C     -0.537233967117     3.144470467122     0.751695817406
H     -0.086876267312     4.004209914729     0.281924464927
C     -0.242896076127     3.015360641563     2.190255010244
O      0.658453138995     3.744947771356     2.679971760995
O     -1.025072765609     2.173676838236     2.996601248409
C     -0.612709812744     2.057887022409     4.365962597088
H     -1.272075107682     1.331492840445     4.888855359675
H      0.431383940593     1.675836742066     4.434059635099
H     -0.684427710057     3.038990881778     4.886510452779
Pd     0.443613904583     1.466306416850    -0.489248076058
C      0.476911463490    -0.399621685208     2.033887876985
O     -0.165058309505    -0.144995266922     0.846785739780
O      1.546862019328     0.160229963413     2.332883488130
C     -0.245826212922    -1.398166964632     2.990890419846
H      0.387294589946    -1.425408863769     3.883655420871
C     -0.302454357256    -2.798956189239     2.408449220962
H     -0.700232207300    -3.499820822289     3.171692766877
H     -0.981433463499    -2.810071767231     1.530889787642
H      0.709731772004    -3.133847012293     2.101016687279
N     -1.603191590688    -1.055502564118     3.443508698713
C     -2.576095329512    -0.601112993604     2.739369996723
O     -2.626491316433    -0.281856739819     1.403929474593
C     -3.846377236160    -0.415446415041     3.447223544581
H     -4.140182672533    -1.391575407419     3.867799104109
H     -3.670174392558     0.315020175676     4.253213676067
H     -4.613314581385    -0.043542143230     2.745068184142
N      1.698065899139     0.115537037684    -1.557554075031
C      2.831931388067     0.550137565672    -2.196850624868
C      3.511697622886    -0.291545716444    -3.053762898751
C      3.069431929826    -1.576933022072    -3.271179040678
C      1.952326474539    -1.999060483730    -2.601720654723
C      1.292823562989    -1.113905036367    -1.724209415882
H      3.201825406174     1.554186773371    -2.031904353143
H      4.396293625830     0.065699467846    -3.555508636530
H      3.600305132796    -2.242779295270    -3.946535472771
H      1.565976695337    -2.993185527535    -2.709172139115
O      0.253735881744    -1.641135357936    -1.103200547602
H     -0.045589476551    -1.086314823816    -0.283324139397

