# STO-3G

title

0 1
C      2.473273672893     0.434238305576     3.124580563667
C      2.033243627614     1.769240027067     3.256976653679
C      2.761264920894     2.671074137624     4.060982497217
C      3.921828545327     2.245297837348     4.736173011373
C      4.357579498264     0.913344507353     4.600933806480
C      3.638370727658     0.006533658304     3.793103733736
H      0.587444473596    -0.692869572991    -0.485890653387
H      1.139325602537     2.114594787770     2.740495793569
H      2.418306089772     3.698957584248     4.160355173149
H      4.478327926198     2.941309623859     5.359423517781
H      5.254763126119     0.576385503488     5.116541452699
H      3.998355777331    -1.015218504534     3.683688885945
C      0.615577983100    -1.972227749166     3.539307074948
H      0.292763636622    -2.906014624333     3.081918009250
H      1.478147967316    -2.026503468611     4.194967940543
C     -0.177797487913    -0.819142936501     3.491491000166
H      0.121152002676     0.044013208555     4.064049012785
C     -1.575976956644    -0.778696125592     3.021925589827
O     -2.185322275907    -1.856757500077     2.798427977506
O     -2.255510247565     0.450700832198     3.073066603261
C     -3.640138360507     0.409106457207     2.695940199173
H     -4.072405205932     1.430491723951     2.755311144082
H     -3.756402721034     0.043168905397     1.649437912095
H     -4.217339591621    -0.253858300932     3.379688529398
Pd     1.488174740258    -0.787525430887     1.891824946881
C     -0.596558631486    -2.770747505875     0.332437332983
O      0.584467441883    -2.088494729141     0.350103597839
O     -0.702422766779    -3.927578206607     0.782072491689
C     -1.804633055189    -2.021430859203    -0.318042045375
H     -2.687524263268    -2.467123384269     0.154289144154
C     -1.884205793793    -2.327111648812    -1.803424203433
H     -2.810156557037    -1.883787723816    -2.225486387146
H     -1.007185174650    -1.884615891591    -2.319061883144
H     -1.900857341041    -3.424070734536    -1.972879415555
N     -1.927931960561    -0.563199201221    -0.173609453108
C     -1.057902149948     0.355222695388    -0.366286071764
O      0.286454654728     0.257286042584    -0.640438878116
C     -1.546031811851     1.735398149484    -0.281185135258
H     -2.346985840111     1.850304958786    -1.031012051195
H     -1.947070276335     1.888254735858     0.733726480042
H     -0.719468563432     2.438549526310    -0.486962702600
N      3.108867789463    -0.657525552215     0.516392924208
C      3.809285599543     0.501957570357     0.312574432078
C      5.030189744252     0.466869895303    -0.331548948023
C      5.544567113870    -0.724614876695    -0.794437696186
C      4.809345553934    -1.865926802115    -0.610514539451
C      3.560965333342    -1.788106089936     0.041049556708
H      3.414519732670     1.445291088872     0.670325717039
H      5.578627914079     1.383021175753    -0.475348573727
H      6.503239858023    -0.756122594279    -1.305264838557
H      5.136358685145    -2.820487629737    -0.971358931771
O      2.906111034469    -2.929198669438     0.121637942301
H      1.883796780966    -2.788442957188     0.303187677335

