# STO-3G

title

0 1
C      0.773748640747     2.965952157239    -0.509837747285
C      1.888395836262     3.831909989744    -0.543749555689
C      1.885156573834     4.958356451700    -1.394226425430
C      0.770102172636     5.230552366274    -2.209228232298
C     -0.342597126511     4.367779577419    -2.173666649695
C     -0.342948384957     3.237849979240    -1.329720312951
H     -0.399860322898    -0.536380903553     2.007319799302
H      2.759469881136     3.643518831158     0.081478366575
H      2.749925679159     5.618564627330    -1.413710514091
H      0.768178891774     6.099788849907    -2.862648927683
H     -1.210115712844     4.566163263159    -2.800202247377
H     -1.213046759428     2.583658036506    -1.317212053799
C      1.144437053062     2.423549750973     2.619411287172
H      1.737467183552     3.319618363305     2.469431194387
H      1.607867825334     1.591780220813     3.139111316485
C     -0.232875549809     2.414844969173     2.386517062419
H     -0.829076223474     1.560148132909     2.682416346166
C     -1.012474276112     3.601124008778     1.990784058361
O     -2.243429554845     3.471749632931     1.764524972549
O     -0.364609760823     4.840812958068     1.846449258889
C     -1.160825719976     5.904135811727     1.306411943734
H     -0.540920186896     6.822445082018     1.224936857547
H     -1.525296275904     5.644178470751     0.286712560419
H     -2.029881072991     6.124433080703     1.966815297947
Pd     0.867336518681     1.352748466511     0.671068334956
C      1.636812635687    -1.498930865586     1.621102491835
O      0.992556649474    -0.359181859224     1.975481027118
O      2.658515038463    -1.507032795907     0.902959092630
C      0.930137517027    -2.776654082209     2.202452192201
H      0.871538885856    -2.618676166621     3.292414736512
C      1.718961220483    -4.036760311468     1.941739707278
H      1.225770681904    -4.895406645185     2.442974020359
H      1.743477302987    -4.228758764252     0.849362438610
H      2.754591522455    -3.934180203252     2.326013728971
N     -0.426824422855    -3.035477522846     1.693610669865
C     -1.376131981913    -2.201807691140     1.504833868261
O     -1.371315381790    -0.819981090202     1.690214596777
C     -2.647170447927    -2.750739719832     1.026023645284
H     -2.455096400069    -3.236855323803     0.054481105275
H     -2.986399830862    -3.495544140447     1.765284892970
H     -3.390173001068    -1.940513462398     0.917221549953
N      0.694804366221     0.169514122704    -1.044737953924
C      1.811004197321    -0.063532296606    -1.802797993036
C      1.687981293204    -0.658996303026    -3.042079726337
C      0.450123065013    -1.032726320486    -3.517835130421
C     -0.646151878318    -0.808699364643    -2.725926617060
C     -0.475057581005    -0.211121199175    -1.459882924162
H      2.785392239908     0.238898778418    -1.436970058474
H      2.570118624846    -0.832458390748    -3.635782231275
H      0.346745125075    -1.500482922444    -4.493234143487
H     -1.634767826228    -1.086286102505    -3.031149501358
O     -1.600140778592    -0.069784116223    -0.770418624638
H     -1.542699413541    -0.134031909422     0.249376310174

