# STO-3G

title

0 1
C      2.357266921053     0.128775727626     0.157653754954
C      2.998732425923    -1.128895519990     0.185595828939
C      4.398307998567    -1.202956317204     0.354959807019
C      5.162885410547    -0.029654449336     0.501204625198
C      4.521708509364     1.224173403657     0.471282570257
C      3.123979044823     1.305665256880     0.298828100628
H      0.000340103952    -2.788240261323     0.569559655072
H      2.426476728793    -2.044480849113     0.052997044861
H      4.885330311819    -2.176178156442     0.373125070067
H      6.240426916561    -0.089789413300     0.635325776634
H      5.101642170892     2.138814027543     0.579578134225
H      2.642468281259     2.282210231233     0.271933349991
C      0.532313981049    -0.110222095978     2.098522381143
H      1.224167957428     0.643482387363     2.456323159401
H      0.901055507799    -1.130368584993     2.115327489776
C     -0.801238724545     0.156440882269     1.852026425327
H     -1.468712487582    -0.651354266442     1.595549434922
C     -1.428054477409     1.478588686175     2.003031298659
O     -0.699646921419     2.507259038206     1.998274607607
O     -2.829181354268     1.568115590080     1.953495523287
C     -3.367880392464     2.885432405299     1.777453644592
H     -4.477112941706     2.827102896839     1.741610436912
H     -3.077871398817     3.551101280786     2.621531218148
H     -3.019196584729     3.327202258876     0.815601952094
Pd     0.379157220357     0.308306995512    -0.201451704803
C     -2.925909673245     0.349021023306    -1.007024626873
O     -1.685644439468     0.811780993068    -0.794520942442
O     -3.860952077612     1.056706260642    -1.439608427078
C     -3.167669535463    -1.179645726112    -0.750499648303
H     -3.551434981199    -1.555371242195    -1.716189933803
C     -4.242550651526    -1.403873397206     0.287268906495
H     -4.419251141455    -2.492422433361     0.410578935890
H     -3.914795528421    -0.984458441292     1.260308341209
H     -5.189545026136    -0.914288562862    -0.022004581171
N     -1.974893279604    -1.866147740753    -0.273161711351
C     -1.065956520641    -2.400297750493    -0.983275121755
O      0.064812653915    -2.924685066956    -0.402857113260
C     -1.084452831994    -2.468046661644    -2.455342440704
H     -1.959475230180    -3.064942703546    -2.762105701800
H     -1.135663744886    -1.438826740111    -2.849866818432
H     -0.158543809380    -2.958648314660    -2.807694904151
N      0.889519152810     0.682545656867    -2.209343510631
C      1.876517074765    -0.009585962971    -2.862847168060
C      2.341283255936     0.432803530831    -4.083924336858
C      1.829026069536     1.574129097881    -4.658366721000
C      0.828413188657     2.238227845524    -4.001478145934
C      0.362938906421     1.750774080668    -2.761803811003
H      2.282746352531    -0.916508213107    -2.434215483521
H      3.122612792311    -0.116792269888    -4.583152719417
H      2.199755316494     1.931019128213    -5.615667238599
H      0.371631381775     3.121266688899    -4.402761554725
O     -0.627222332958     2.433305150996    -2.242397955332
H     -1.201999473129     1.868358146881    -1.520530774072

