# STO-3G

title

0 1
C      1.271560889355     2.653642577409    -0.609852265965
C      2.607795716285     3.061015907639    -0.420014456105
C      2.983263254591     4.391942413592    -0.701312815666
C      2.031735187397     5.315043468800    -1.175628390891
C      0.698681189699     4.904235218963    -1.368795586917
C      0.314635623705     3.575801975101    -1.088859504189
H      0.073626489032    -2.247018053200     3.419587296665
H      3.356597811153     2.358214898868    -0.059939450019
H      4.014827080267     4.701512080441    -0.545928152635
H      2.324366202496     6.341039985678    -1.385602190884
H     -0.043317177685     5.613097736402    -1.730089982785
H     -0.720866540303     3.277393467629    -1.242603923580
C      0.937083306006     0.933903044824     1.918092776201
H      1.670943522215     1.694308395761     2.167012279658
H      1.231231163725    -0.095931105037     2.107908581466
C     -0.390457592683     1.267909508786     1.628914533686
H     -1.137667328816     0.490794747931     1.551925159072
C     -0.945422148745     2.628695671652     1.745996407242
O     -0.228903474510     3.564979589104     2.187587410976
O     -2.247945853986     2.864330749239     1.275801684386
C     -2.720990218621     4.213532197208     1.395706189912
H     -3.756561055114     4.278369824282     0.997426886228
H     -2.739487807738     4.532631864944     2.462769837404
H     -2.077771706184     4.912626928420     0.813764250135
Pd     0.745663769905     0.755257048987    -0.305980545362
C     -0.133686962190    -2.038126923000     1.092565135108
O      0.146614793889    -1.388744055445    -0.022953488661
O      0.764712035202    -2.316990191140     1.956644369198
C     -1.610568999501    -2.385176564414     1.438012016033
H     -1.589037929213    -3.400162817859     1.869420075764
C     -2.533433217772    -2.369354120873     0.244799396435
H     -3.542883972975    -2.708259568103     0.557476165178
H     -2.615334188398    -1.334140232728    -0.143741207875
H     -2.151091375095    -3.042091591357    -0.550108073218
N     -2.169308452021    -1.421936825492     2.415927861554
C     -1.668543358091    -1.304129140690     3.600280342437
O     -0.547973449463    -1.869464767197     4.125455470225
C     -2.394942658117    -0.426041605127     4.522658382044
H     -3.414774905221    -0.830582659487     4.633829249893
H     -1.873613241309    -0.410787604244     5.495797393662
H     -2.426718044203     0.584456176689     4.081715879604
N      1.565489754275     0.234147750848    -2.204819177092
C      1.613905587269     1.106981792747    -3.263005080058
C      2.387568519330     0.818417286465    -4.368405582790
C      3.117187351124    -0.346832736683    -4.429494049493
C      3.037703404945    -1.215938108026    -3.375510176835
C      2.227057503725    -0.894921261639    -2.266761694025
H      1.039704744482     2.023787887843    -3.243801510599
H      2.421611430385     1.517631434144    -5.188118628805
H      3.731736002872    -0.575702822038    -5.296279818699
H      3.567941154182    -2.147875739618    -3.365467836155
O      2.208568772468    -1.815950219907    -1.329917779213
H      1.425379179542    -1.706647846233    -0.646075643344

