# STO-3G

title

0 1
C      2.754609978859     0.131025886574     3.506820004273
C      3.079259082745     1.505886264417     3.518638361409
C      3.910709039786     2.029358673116     4.530668823658
C      4.427108099982     1.185398488853     5.533389584675
C      4.108840007796    -0.185742181728     5.519805930551
C      3.274919030934    -0.715021516331     4.511302793636
H     -0.935600580603    -0.432009477344     0.029391569191
H      2.691739893785     2.171647506148     2.748817221677
H      4.151009380135     3.090906881223     4.532839929865
H      5.066852540233     1.591100158397     6.313727825814
H      4.505225495313    -0.845309762715     6.289433791232
H      3.055464357495    -1.781420541769     4.512169097904
C      0.058090213344    -1.321879465591     3.478143999504
H     -0.560056968016    -2.041806174079     2.951057767485
H      0.719527845914    -1.722790759802     4.236678336947
C     -0.171348393639     0.049770621347     3.373664328487
H      0.374724936646     0.733457278080     4.003141262740
C     -1.342713813773     0.647739788919     2.708421260865
O     -2.417325537626    -0.008971052513     2.665945304637
O     -1.335768371243     2.039089606826     2.512711654520
C     -2.504731507608     2.581265245434     1.882106431500
H     -2.383564126080     3.678755124613     1.761088410785
H     -2.650301778286     2.135928882552     0.871281279169
H     -3.412042717073     2.396933060616     2.500853606889
Pd     1.613068757185    -0.606965423367     2.033979756253
C      0.065429376565    -2.643644558981     0.331044539769
O      0.299797825303    -1.296629650497     0.451179260469
O      0.694475677173    -3.477061251818     1.011141022949
C     -1.056748015328    -3.050381022231    -0.667224472332
H     -1.150353325338    -4.134709693172    -0.547988377671
C     -0.662672493595    -2.765715828453    -2.106517145620
H     -1.434884076991    -3.179563758694    -2.787996139319
H     -0.600624725388    -1.669511129304    -2.268214307365
H      0.315856318174    -3.232869256324    -2.341572767251
N     -2.391281821793    -2.477931778803    -0.447647968086
C     -2.697781174842    -1.245703809007    -0.259282703598
O     -1.882017971722    -0.143263649091    -0.167611103661
C     -4.124695049684    -0.916800468813    -0.181530526048
H     -4.353045192037    -0.214537466922    -0.998676513282
H     -4.717770703649    -1.843021242486    -0.284133071441
H     -4.308018615418    -0.451983918272     0.802480180429
N      3.269091209646    -0.459032661715     0.680569861950
C      4.567100359382    -0.541322753908     1.122965528969
C      5.614240916392    -0.256545686420     0.270316792288
C      5.376813662298     0.104697066419    -1.035780424935
C      4.079483739256     0.149880175879    -1.467391278866
C      3.036286561620    -0.161321358085    -0.570641688490
H      4.784380529531    -0.838512287942     2.140142858036
H      6.626482794329    -0.317808904706     0.635819038492
H      6.197997581619     0.333280495462    -1.710123632028
H      3.824610273116     0.402501451388    -2.477701141577
O      1.836367681492    -0.126312064963    -1.115164003384
H      1.110059240965    -0.579370320913    -0.536773092085

