# STO-3G

title

0 1
C      0.616620879022     3.074333802473    -0.102910529019
C      1.866031339150     3.679016284126     0.161869294275
C      1.996696559251     5.083000669751     0.125813626401
C      0.885173475350     5.891857607810    -0.180290600636
C     -0.358790952443     5.289970614854    -0.450044729522
C     -0.496680110520     3.885995886304    -0.411322293558
H     -2.975056373514    -1.271111279636    -0.152082352062
H      2.736003477951     3.067943071506     0.399728986590
H      2.963151076198     5.537419978111     0.336052532906
H      0.986588264773     6.974306539229    -0.207614466051
H     -1.223376822218     5.906941281201    -0.687076317933
H     -1.466580862204     3.441826330966    -0.627011386411
C     -1.164138880013     1.081120248735     1.446067862284
H     -1.700166815445     2.023229508511     1.407879496425
H     -1.723799375379     0.209611424506     1.130836499666
C      0.048684634274     0.952868888802     2.124997415564
H      0.481220857462    -0.031250912940     2.251919584140
C      0.680986225448     2.028543663454     2.907937911051
O      1.843045318999     1.845335976179     3.354313163460
O      0.023207452209     3.262012781282     3.053927553213
C      0.767933920603     4.298902874112     3.706887273112
H      0.149527529366     5.220970498500     3.752610815050
H      1.032963268357     4.002480383260     4.746977820968
H      1.696014436019     4.535626109715     3.139100638832
Pd     0.462766201438     1.080940898147    -0.120461319577
C     -0.712664987570    -1.704851943295    -0.388054244920
O      0.405680098619    -1.103869718783    -0.014508457634
O     -1.603036183616    -1.102736364255    -1.070653083139
C     -0.964089494891    -3.098100320713     0.250678331555
H      0.001505304383    -3.487156111916     0.587968777635
C     -1.581410636682    -4.085763856448    -0.718646293188
H     -1.699825943110    -5.069202729658    -0.218067843072
H     -2.582627033221    -3.722619014025    -1.031352393465
H     -0.934562298324    -4.205101113697    -1.611746496930
N     -1.837315783280    -3.021239134500     1.436444986099
C     -2.890686160984    -2.297731843829     1.568347329668
O     -3.470098791700    -1.391447361020     0.714206661220
C     -3.605150329112    -2.441149849834     2.840594596255
H     -2.905111398980    -2.175013051215     3.650024055928
H     -4.483912466526    -1.773217150449     2.846907778394
H     -3.918134179420    -3.495225386631     2.935963972328
N      1.702723277595     0.977356465560    -1.838724084379
C      1.707372362219     1.974354842704    -2.781642249770
C      2.661593610143     1.982562774416    -3.778225151917
C      3.612626356902     0.989990113424    -3.846331364139
C      3.573474239200    -0.009757871733    -2.911982126898
C      2.576257078747     0.007799906285    -1.914315737700
H      0.962169833500     2.759723019695    -2.751079236138
H      2.658451845166     2.776324640539    -4.507464795095
H      4.367511821254     0.993619273977    -4.628253761460
H      4.273392146780    -0.821718317887    -2.919393468209
O      2.621317522781    -1.026462701796    -1.097420785249
H      1.768587013261    -1.169643087891    -0.530120251234

