# STO-3G

title

0 1
C      0.646858651394     3.131069177206    -0.257214149161
C      1.878956606660     3.289595575759     0.415571143516
C      2.360108944373     4.580950716747     0.714980271331
C      1.620564179372     5.719500034305     0.340011570653
C      0.396111387425     5.560929626828    -0.336168084135
C     -0.093784659045     4.271275783101    -0.635107171681
H     -3.113633186448    -1.474712470347     0.927692127792
H      2.463183476487     2.419398940461     0.711074724960
H      3.307748526574     4.691198118836     1.238704829315
H      1.992799022591     6.714627330362     0.571706536444
H     -0.182851666230     6.434519358126    -0.629094114999
H     -1.042066116528     4.172470642071    -1.159152294640
C     -1.952188919558     1.564970552208     0.325620477560
H     -2.247511760681     2.607478648923     0.279423187975
H     -2.517607178133     0.850069014614    -0.266382036776
C     -1.069552584113     1.110017008940     1.306498024032
H     -0.901563942535     0.049657697207     1.431846450419
C     -0.539895372530     1.939653735767     2.402033374331
O      0.329010968319     1.445116150131     3.166995245877
O     -0.932971187475     3.285348431689     2.508966181416
C     -0.258403109734     4.058949677616     3.510066899736
H     -0.646146290489     5.099942450454     3.491923754054
H     -0.436320296745     3.636055875769     4.524691245292
H      0.836030678242     4.095823977503     3.308321219941
Pd     0.023168344730     1.290785635726    -0.715726819401
C     -1.480311438920    -1.602576630220    -0.722137420937
O     -0.482973554482    -0.825613139619    -1.103918154905
O     -2.687925211384    -1.206880699107    -0.698977040913
C     -1.059064490884    -2.971532811603    -0.106705943726
H     -0.061395937184    -3.223278727474    -0.481638707880
C     -2.009629649386    -4.095306505416    -0.466511530479
H     -1.639460618202    -5.046010002764    -0.029652182685
H     -3.015324536644    -3.879841879590    -0.048972404266
H     -2.081252673235    -4.201449742407    -1.568199982013
N     -0.962758385862    -2.907616124920     1.362908041299
C     -1.786458515701    -2.327922650931     2.160631663429
O     -2.921998249189    -1.601462973102     1.902202953666
C     -1.475741521475    -2.438420980740     3.589103146724
H     -0.482244137429    -1.986872987264     3.752143432261
H     -2.244946699212    -1.906161056776     4.175180148464
H     -1.458862152298    -3.510183140816     3.851386876464
N      1.636031520912     1.095144495251    -2.090348245370
C      2.120404538345     2.179861949097    -2.777694895345
C      3.303540629572     2.086345076780    -3.480761179354
C      4.011297230470     0.906564708739    -3.509191121039
C      3.499077692891    -0.172055414021    -2.840633688304
C      2.279674123354    -0.046166543126    -2.141801917262
H      1.575571234357     3.115848149921    -2.776332308664
H      3.676136121786     2.949773296260    -4.007649054105
H      4.946391930679     0.830081552130    -4.057921790618
H      3.991473639495    -1.124442228336    -2.837193118351
O      1.871532081548    -1.154979473192    -1.570365610389
H      0.851234059428    -1.147919970776    -1.272971415658

