# STO-3G

title

0 1
C      1.295176501377     2.816063948842    -0.532356330733
C      2.633451711183     2.913065477808    -0.097674803491
C      3.335254253218     4.128858013801    -0.241315216914
C      2.708810166650     5.248055012704    -0.822345087589
C      1.374008057452     5.149084428371    -1.260247409532
C      0.665599627356     3.937376162515    -1.118273393997
H     -2.715598897393    -0.766167027116     2.335208120362
H      3.136100176911     2.055741672489     0.346183134842
H      4.365366475154     4.196683041082     0.102919770871
H      3.251478372216     6.184615345414    -0.926172406126
H      0.881027827257     6.010754386136    -1.705393407207
H     -0.366822481050     3.882299945224    -1.459874160737
C      0.128485088061     1.145013532324     1.800179627601
H      0.971733027919     1.677499088924     2.229236411678
H      0.119744369175     0.071159690241     1.962855567509
C     -1.003039522478     1.812983893879     1.325841204319
H     -1.874837889497     1.241289642489     1.040503350462
C     -1.213471836314     3.266778969692     1.448007567054
O     -0.367269017974     3.974195233817     2.056846426010
O     -2.291110623525     3.849040908692     0.759539267386
C     -2.421343339025     5.271608177727     0.892178947996
H     -3.305594701797     5.616455487645     0.314138038053
H     -2.571626223900     5.556471313652     1.958487330724
H     -1.519141978550     5.791072097804     0.495709891260
Pd     0.318647497698     1.080004726403    -0.434627070439
C     -1.598513286260    -1.390254750677     0.398249388338
O     -0.598690860315    -0.918927491974    -0.321877374800
O     -2.637394571227    -0.704809011879     0.657961992136
C     -1.335000780421    -2.765560158621     1.082555256561
H     -0.537363141943    -3.273097849766     0.530090972841
C     -2.559015741564    -3.658950902118     1.095938642228
H     -2.301528622982    -4.631543865157     1.564365484125
H     -3.364038660070    -3.179277848662     1.691063766714
H     -2.919079441546    -3.834338984351     0.061605840329
N     -0.865338338940    -2.610974300631     2.472912282845
C     -1.344443544113    -1.804795951600     3.353270436430
O     -2.339132689713    -0.867610968358     3.259035284922
C     -0.740584357825    -1.887407966944     4.686876034028
H      0.336952963599    -1.679464445789     4.583254593135
H     -1.219955403775    -1.148638928780     5.352897861200
H     -0.898957414925    -2.911492273589     5.066734693000
N      1.378797671098     0.398427985799    -2.160924146493
C      1.782477138878     1.258873565035    -3.150949232583
C      2.699479628750     0.850017610449    -4.097114351872
C      3.217787074716    -0.424192868909    -4.067156757571
C      2.784382025239    -1.276441598681    -3.088004810173
C      1.835862749687    -0.829897805455    -2.143574769621
H      1.379392060513     2.261892254108    -3.201830946491
H      3.012906403561     1.540421183890    -4.863347175667
H      3.943472251959    -0.748739032449    -4.808379279434
H      3.135251780215    -2.287137994181    -3.019036952953
O      1.474286483472    -1.746243442566    -1.273247023211
H      0.585078857241    -1.519848079112    -0.747093357463

