# STO-3G

title

0 1
C      1.033675596700     3.025634862303    -1.592178077677
C      2.287364707766     3.280388678319    -2.199995118196
C      2.431622172596     4.310155700999    -3.150488456450
C      1.322621190704     5.096367648802    -3.523647644680
C      0.069440790857     4.845725131811    -2.938292581943
C     -0.075304794086     3.822783807583    -1.974434263616
H     -0.480383911401    -0.595141109825     0.551336179337
H      3.153903731475     2.676734460033    -1.938480656897
H      3.404669298314     4.493287396894    -3.601371426728
H      1.434319645790     5.886429446217    -4.261951666234
H     -0.797498329274     5.437535913897    -3.224084234586
H     -1.061249578497     3.658653601472    -1.539462021375
C      1.352534727313     3.030917239529     1.413148122884
H      1.825201179381     2.442049935326     2.195871800419
H      1.974412779614     3.724644804336     0.856127433116
C     -0.034019977339     3.053301353480     1.250065926830
H     -0.470604415089     3.724717597153     0.527176123361
C     -1.002094520765     2.498242091269     2.214732755282
O     -2.227466534842     2.583138103382     1.936213844385
O     -0.568311603080     2.188847741665     3.514762772142
C     -1.595381326923     1.909194001765     4.476545776344
H     -1.125472349258     1.652722641405     5.449851261194
H     -2.250014227413     2.796669464249     4.625381598909
H     -2.216411087351     1.042363433150     4.160667484983
Pd     0.932984768524     1.554827178990    -0.208325246920
C      1.004367051152    -0.259704507009     2.439031334243
O      0.795194211031    -0.068545861817     1.124113298166
O      1.945980548751     0.268240620614     3.073363455235
C     -0.035763797831    -1.207201210040     3.131242269251
H      0.094262218525    -1.021347735976     4.202803231048
C      0.291650917332    -2.665806342510     2.867013199730
H     -0.393481199901    -3.311771605516     3.454491841985
H      0.150162620561    -2.882675060457     1.787907747450
H      1.339036809531    -2.886825432199     3.158782433338
N     -1.462372895648    -1.018655565212     2.830350867259
C     -2.037116720237    -0.874365384958     1.689884815326
O     -1.481219578512    -0.777735515223     0.440972078726
C     -3.501564737127    -0.807504967658     1.709685341824
H     -3.873513752116    -1.727830313889     2.189461901202
H     -3.782886089096     0.080876107505     2.299106398948
H     -3.882298112179    -0.720883491214     0.676650321673
N      1.252714768800     0.041867600755    -1.633761763814
C      2.136620737893    -0.942008510891    -1.270508246768
C      2.303256577536    -2.052068194666    -2.074964785946
C      1.569288442756    -2.192412428663    -3.232722129124
C      0.691376933697    -1.195791101576    -3.569467812822
C      0.559297232067    -0.078101016809    -2.722114153304
H      2.724942005105    -0.838497016673    -0.366273245201
H      3.000465287417    -2.819444943687    -1.781783238811
H      1.684678836453    -3.070192523481    -3.862900219265
H      0.083476068301    -1.244907133755    -4.450468922068
O     -0.326293241754     0.815561401800    -3.140525182224
H     -0.326834920826     1.638100393743    -2.590311103561

