# STO-3G

title

0 1
C      1.005182931904     2.729423825233    -1.063755983421
C      2.100589889878     3.549412974206    -1.410760585541
C      1.898173541399     4.714887103597    -2.180790832112
C      0.605500795461     5.073527402293    -2.606889610993
C     -0.489322500860     4.256421272008    -2.263948460728
C     -0.291261040331     3.087520444917    -1.501112256676
H     -1.512616878541     0.668922802925     1.783613069075
H      3.109080459507     3.298436675732    -1.089090058012
H      2.750032881364     5.342370716816    -2.435570640034
H      0.453719982389     5.976589834920    -3.193354525692
H     -1.493071383782     4.523283721421    -2.588968241130
H     -1.148005141739     2.461075776238    -1.256869100554
C      2.385026682642     2.019681161517     1.642976242611
H      2.994956370754     2.813690156343     1.223845351713
H      2.879516674293     1.123236840731     2.008263880888
C      1.043015787997     2.231556532474     1.963103938314
H      0.502875337777     1.464420696684     2.499343418461
C      0.360511385900     3.536336134214     1.867512366237
O      1.025861715834     4.571275646891     1.594350004831
O     -1.036888327355     3.581145935995     2.004739931210
C     -1.643961283534     4.863387744195     1.793806182174
H     -2.743794415799     4.776068085818     1.925230757743
H     -1.263548892352     5.606979180578     2.530495995750
H     -1.442655937995     5.229975467973     0.761025324033
Pd     1.225503023029     1.039391593448    -0.018387024379
C      1.511542581732    -1.168138351074     2.379702511591
O      1.190071544269    -0.851539829574     1.115766440070
O      2.506170218121    -0.694068146475     2.974769093068
C      0.588226515580    -2.197073361761     3.107295467640
H      0.638951822450    -1.915970663706     4.169053328014
C      1.127297945730    -3.602516440656     2.969763977706
H      0.529695414511    -4.290719774660     3.603360746964
H      1.033100024795    -3.927102369016     1.913021323248
H      2.189693949627    -3.647486869465     3.287465482218
N     -0.805207724885    -2.258439252457     2.676437886017
C     -1.529947900561    -1.266286013464     2.372113840362
O     -1.132242233369     0.075572683858     2.463967282612
C     -2.905019626471    -1.548308781673     1.935418559602
H     -2.836498512600    -2.133224587713     1.001616382295
H     -3.385945351974    -2.148281313020     2.726189158320
H     -3.454462833399    -0.605876579822     1.773217732259
N      0.690475219557    -0.056766768321    -1.756202946415
C      1.033671444698     0.377187228419    -3.012105694653
C      0.507649916352    -0.238681565683    -4.128855479240
C     -0.360378919541    -1.298777734058    -4.002259522292
C     -0.669788974673    -1.736051523437    -2.743109380599
C     -0.103426037664    -1.093647091407    -1.620614081926
H      1.722670697116     1.203335253156    -3.136623747383
H      0.779585761141     0.119900208731    -5.108282597643
H     -0.778911364515    -1.784601086473    -4.879777541609
H     -1.320339671720    -2.571173704299    -2.574825188496
O     -0.437335192056    -1.618408940497    -0.470278349171
H      0.230235272604    -1.348537575594     0.371725003165

