# STO-3G

title

0 1
C      1.260042179611     2.855067850959    -0.098487520991
C      2.295323994136     3.555942731677     0.556005182113
C      2.420132291010     4.951590136188     0.384571784452
C      1.515939372349     5.653217348717    -0.435008629897
C      0.483623034194     4.953033374242    -1.089116384540
C      0.355751249764     3.558217530066    -0.925755809930
H     -0.098222320040    -2.025552105732     3.320641876424
H      3.006674139529     3.034904842239     1.193324067313
H      3.220172852350     5.484062255984     0.895097083809
H      1.613580288987     6.728851620272    -0.561752541859
H     -0.221577125429     5.484780469174    -1.725045464136
H     -0.446698867626     3.031142043151    -1.439726952211
C      0.952789746114     0.949953433936     2.301847481037
H      1.502211074848     1.810102727731     2.668290644155
H      1.372533840044    -0.034873232238     2.489017771426
C     -0.359157639237     1.078717271239     1.842664413141
H     -0.941569782819     0.196208189251     1.615250182463
C     -1.139693793981     2.326783125801     1.893262892980
O     -2.281689634401     2.345842444490     1.364427240944
O     -0.564267881646     3.486466857065     2.441416302324
C     -1.333940329650     4.689563162853     2.315273589747
H     -0.774357689018     5.532484828182     2.774370490408
H     -1.507846328585     4.935454307486     1.243273081120
H     -2.311915826609     4.591525922704     2.838640823445
Pd     1.075368272062     0.872541505375     0.055913005190
C      0.495004863783    -2.159028754041     1.072779955023
O      0.631389913018    -1.291420244419     0.090605033053
O      1.174508795182    -2.087490464741     2.147612871430
C     -0.684656871169    -3.179299387207     1.027077695508
H     -0.387121481474    -4.009181434859     1.686726425662
C     -0.996313955688    -3.724487216242    -0.345775071772
H     -1.719945413619    -4.560040578412    -0.249403238631
H     -1.470104870818    -2.934442476024    -0.964055978271
H     -0.073952345663    -4.092914802033    -0.839336773132
N     -1.919361088663    -2.530123985837     1.516123916268
C     -1.990761763071    -1.968983545956     2.672357673405
O     -1.022017665447    -1.786537341507     3.624337127597
C     -3.299248608351    -1.423689050163     3.044967142459
H     -4.024138281576    -2.254608047880     3.026673148429
H     -3.238338277315    -0.981465545709     4.054493622135
H     -3.575495961347    -0.657011755239     2.299882445204
N      1.649663018263     0.673116995142    -1.982480350940
C      2.546574545675     1.539276411037    -2.555996943109
C      2.734049135061     1.542455023486    -3.922697910771
C      2.031828138563     0.676175681447    -4.729032882567
C      1.161713640853    -0.198421661345    -4.136692003553
C      1.003415489613    -0.183959381710    -2.734642397434
H      3.116094276481     2.223833668225    -1.939573133225
H      3.434949053036     2.235190586299    -4.359496954344
H      2.173046884365     0.678626836554    -5.806724870743
H      0.596939950103    -0.910535823423    -4.705307199693
O      0.168706947088    -1.089577686903    -2.279717231166
H      0.231435947463    -1.264538105697    -1.238481591739

