# STO-3G

title

0 1
C      0.705207829268     3.331657487815    -1.283535853583
C      1.931082882753     4.024921352408    -1.178177562751
C      2.109292165946     5.256270861305    -1.843350599371
C      1.069070346320     5.799967766873    -2.621905736002
C     -0.152062211417     5.107453294987    -2.732170486907
C     -0.337399958509     3.877586203114    -2.065236663944
H     -3.051239199116    -0.255878294320     0.676761889817
H      2.748461025242     3.613280263371    -0.587150962348
H      3.056906234305     5.784069845101    -1.751704215931
H      1.208033782228     6.749597478019    -3.133545266452
H     -0.960559742224     5.520241386379    -3.332501151528
H     -1.285828713028     3.353115287305    -2.170324511616
C     -1.133042799123     2.392301969581     0.942945430444
H     -1.769323125444     1.566907719303     1.242739568762
H     -1.592972200910     3.141355227604     0.308783072219
C      0.097336599823     2.642852170872     1.552232268616
H      0.622867066385     3.563703974637     1.351492039945
C      0.649272293832     1.845160990953     2.661215345019
O      1.833449147243     2.063283825364     3.026518081420
O     -0.132966515742     0.844897665715     3.257713463669
C      0.539083290238    -0.014769837526     4.187486265922
H     -0.175608474926    -0.784733368042     4.553597681045
H      1.384479295347    -0.545318673403     3.694396908932
H      0.916549251232     0.562166821650     5.061258062498
Pd     0.464353162354     1.544713725121    -0.414358108745
C     -0.899603788564    -0.991418579856     0.441653703683
O      0.263216512648    -0.375520312793     0.568782209015
O     -1.787525417502    -0.574551930551    -0.371530133243
C     -1.182214821391    -2.122928011899     1.468748399260
H     -0.217642720474    -2.447928978548     1.872572538694
C     -1.876436940660    -3.314072982278     0.841772719754
H     -2.001747254581    -4.111938081254     1.602985881544
H     -2.879969228484    -3.005779567809     0.481205254770
H     -1.280063023011    -3.707253506969    -0.006762645953
N     -1.998580325269    -1.688373986097     2.613953525832
C     -2.927494315481    -0.801483961905     2.604153890268
O     -3.444788920011    -0.046699489604     1.575138127777
C     -3.566070428620    -0.535339187279     3.896968991966
H     -2.783957453010    -0.167297870304     4.581384180972
H     -4.356139718711     0.223965027810     3.766549472229
H     -3.992645536531    -1.483044066128     4.267664200617
N      1.777935720400     0.644545625102    -1.828387185834
C      1.901186290699     1.133046744933    -3.104945809687
C      2.921658230515     0.691969134655    -3.922143199889
C      3.822166502436    -0.247425888212    -3.474324613810
C      3.665153712026    -0.742676067020    -2.207977710636
C      2.603453107698    -0.276859099155    -1.404106703526
H      1.197467191928     1.864859077024    -3.481271531334
H      3.011196722185     1.091030521930    -4.919475361679
H      4.629376293406    -0.595508122092    -4.113527163449
H      4.321021037120    -1.488563798602    -1.804533503744
O      2.537720575986    -0.856017230794    -0.221201264358
H      1.639426775316    -0.722150484401     0.276063806067

