# STO-3G

title

0 1
C      0.615880349825     3.180164449146    -1.254814893915
C      1.822196382665     3.889281065313    -1.068659127872
C      2.019013342705     5.129083287541    -1.712069132475
C      1.016501223876     5.664597487258    -2.544501202692
C     -0.185498018856     4.955663627734    -2.731398180852
C     -0.389856209250     3.715348086777    -2.088901023129
H     -0.185071685271    -0.742399194743     2.001530731516
H      2.605046911019     3.486385000895    -0.427054972703
H      2.950527732718     5.670992832517    -1.559250768300
H      1.170005128954     6.621344091327    -3.038259901712
H     -0.964002797700     5.362101949342    -3.374015903611
H     -1.319755433874     3.174936592479    -2.257528221933
C     -1.392081370722     2.059498312925     0.878024487661
H     -1.848294777031     1.164612170568     1.288165711410
H     -1.972134985005     2.605963116389     0.142196700867
C     -0.246351486790     2.619600814574     1.439371078093
H      0.101093065886     3.580266919653     1.097216976590
C      0.393666408733     2.166047118466     2.683977813037
O      1.624764076716     2.396038144430     2.813507273467
O     -0.416902070102     1.926462804739     3.806674943271
C      0.278291610714     1.528665122838     4.996828727026
H     -0.455534340384     1.355056658497     5.811799062873
H      0.836010865382     0.579302002381     4.825457088367
H      0.985111641580     2.321980852709     5.329961375217
Pd     0.329659346363     1.383958797186    -0.419945327841
C     -1.099061699231    -1.232805629967    -0.176223108056
O     -0.060228870578    -0.581236332671     0.459483409276
O     -1.522625166716    -0.851360447622    -1.282858275139
C     -1.699130615630    -2.365387586835     0.697603694220
H     -0.846838213300    -2.957367344287     1.076030437982
C     -2.625720375102    -3.266693537590    -0.079485813796
H     -2.977529587414    -4.088903380747     0.577426515923
H     -3.506661482565    -2.681401785066    -0.415717863532
H     -2.103641356662    -3.696586987502    -0.958869270085
N     -2.493477775765    -1.818316184130     1.820651481365
C     -1.938212312130    -1.170375971692     2.785374266590
O     -0.632004300566    -0.783307597059     2.913038864663
C     -2.805683293366    -0.800824021414     3.906646133805
H     -3.212842841225    -1.731800686575     4.334936128555
H     -2.213742700434    -0.247327275740     4.654761611366
H     -3.620058547078    -0.169211849361     3.512762431419
N      1.737009023696     0.530460663358    -1.782612517500
C      1.972341995463     1.062638891619    -3.026126832993
C      3.039147719131     0.619452488788    -3.781708876439
C      3.873019087142    -0.367063391055    -3.306546715950
C      3.600325098620    -0.909104204577    -2.079806154002
C      2.493501460277    -0.438868482550    -1.342934865095
H      1.323627285781     1.830990734592    -3.426568447941
H      3.217504870444     1.054195720569    -4.751662238527
H      4.716172096978    -0.716966266207    -3.896339890521
H      4.194947687758    -1.696064100501    -1.660050801856
O      2.299729981758    -1.071220776150    -0.200273982781
H      1.358388130666    -0.919106698528     0.193346401123

