# STO-3G

title

0 1
C      1.135437197456     3.072000423659     0.083359723362
C      2.170924352671     3.544052773973     0.919750733918
C      2.671567808353     4.854509294798     0.763594147369
C      2.141639092416     5.705898281947    -0.224587144771
C      1.108437824953     5.238646629646    -1.060537447147
C      0.608945258198     3.928467649918    -0.909954744013
H     -1.437628466659    -1.125880372153     0.956070811050
H      2.594698966103     2.904486838021     1.691981111144
H      3.469615563232     5.205571586326     1.415072772947
H      2.527211434702     6.716105762703    -0.342010512087
H      0.690471085465     5.887894783105    -1.828116448042
H     -0.191638496531     3.583375088949    -1.563037248436
C     -0.119575876975     1.276176341556     2.401197307638
H      0.546353739805     1.946555132517     2.933863358235
H     -0.047921146270     0.218581309063     2.633721473015
C     -1.215226752945     1.747901182133     1.673791912031
H     -1.946013449619     1.042299551928     1.301208110234
C     -1.612949024808     3.164279645150     1.600591679426
O     -2.590263749625     3.487894204122     0.875838456506
O     -0.882201480032     4.127475262184     2.319649106088
C     -1.229614960762     5.495224428552     2.066309317548
H     -0.578745403228     6.157900294780     2.675623362616
H     -1.070448381137     5.748930547545     0.993774015835
H     -2.289943075482     5.693059397310     2.342616980462
Pd     0.491636760101     1.185325973168     0.251533895924
C      0.785469168185    -1.831254682526     0.435748175556
O     -0.122380399224    -0.844169443854     0.385273379784
O      2.002219144889    -1.658745134024     0.167715321169
C      0.230648880061    -3.223077028831     0.881584048889
H      1.121292916191    -3.805907079649     1.139748831692
C     -0.472230423310    -3.928369621863    -0.265090885091
H     -0.758533925664    -4.953323634128     0.050257381618
H     -1.390788363941    -3.365985332952    -0.531279278418
H      0.196485149226    -3.992550171259    -1.148150982503
N     -0.669987722988    -3.273831663218     2.042554536498
C     -1.689461857157    -2.533122659079     2.293707219508
O     -2.166911547414    -1.440074089704     1.617560844613
C     -2.473704739851    -2.900811567175     3.477541135070
H     -1.800982715258    -2.858644052687     4.350097085083
H     -3.312114642356    -2.192546818578     3.593140107157
H     -2.847724739856    -3.928393026896     3.329904054387
N      1.219120942803     0.730748888766    -1.653781999982
C      2.538262772584     0.487298329066    -1.921971774055
C      2.903861289445     0.000821787228    -3.163560240560
C      1.948495172165    -0.250480521204    -4.125840153601
C      0.631818546291    -0.000799155499    -3.822491618383
C      0.318383103326     0.498989920784    -2.534657561456
H      3.289501636257     0.680773678031    -1.165012176144
H      3.943959332389    -0.191906428729    -3.368766112380
H      2.233004861375    -0.634558618243    -5.101944767621
H     -0.142370891617    -0.166226114190    -4.541798714179
O     -0.971895243252     0.761507847898    -2.223029685411
H     -1.645055789886     0.337455292679    -2.783959518844

