# STO-3G

title

0 1
C      1.070326654495     2.628068100298    -0.816053629238
C      2.038062372220     3.514950435803    -0.295997777409
C      2.305721703770     4.735628914009    -0.953052567895
C      1.611375809197     5.078966640951    -2.128264718229
C      0.649671376719     4.191926046686    -2.650531965026
C      0.382814385984     2.969117351080    -2.001837192115
H      0.920596562410    -1.131772838795     2.540261185774
H      2.586312034565     3.273643698351     0.612594319337
H      3.051225497357     5.413523605910    -0.542025152593
H      1.817625559077     6.020801982956    -2.631158709976
H      0.110059890718     4.443269810043    -3.561574957953
H     -0.356249600284     2.290433223686    -2.425045868463
C      0.219444846868     1.807963227123     2.073788135229
H      0.768381633870     2.739868743355     2.157832996160
H      0.538581215466     0.995385332824     2.718089091210
C     -0.987596086085     1.741409961036     1.380296806993
H     -1.586955161013     0.841909256016     1.421799588010
C     -1.661601736283     2.904584068677     0.776982087946
O     -2.694823048742     2.714157735825     0.085117252379
O     -1.110168737224     4.187837119270     0.937193917334
C     -1.741867740216     5.239250969199     0.194458510120
H     -1.212330594610     6.196150172209     0.390164377112
H     -1.689914367063     5.035386124756    -0.899072192449
H     -2.805948530818     5.357651238612     0.500546457418
Pd     0.698103437328     0.871040165933     0.065595205884
C     -0.775315809489    -1.708256955869     0.917991653131
O      0.332515409857    -1.016159459991     1.093449694562
O     -1.476332163491    -1.600404229321    -0.144087228185
C     -1.177283628231    -2.625983450140     2.103638837411
H     -0.354084813812    -3.358990415479     2.194643011818
C     -2.465979305353    -3.371515307630     1.857111635505
H     -2.660918010625    -4.063042896491     2.702880835088
H     -3.301788536340    -2.644466389373     1.795373482869
H     -2.406262991024    -3.955250791364     0.915423157471
N     -1.356346352591    -1.902985486894     3.378837626682
C     -0.404937513530    -1.282776847531     3.980888293445
O      0.874136203021    -1.033874435232     3.552032572986
C     -0.716997752838    -0.756576008517     5.312516025566
H     -1.556198875637    -0.049232649910     5.203968194071
H     -1.017301956531    -1.610605244611     5.942262200823
H      0.171800452431    -0.253927274726     5.733181401297
N      1.572645331672    -0.017044839586    -1.599734218336
C      2.881951837819     0.264202750302    -1.886196849129
C      3.429929994464    -0.139658941816    -3.085299281010
C      2.669650498373    -0.826908386975    -4.004424548610
C      1.365127177858    -1.103157539557    -3.692125473645
C      0.837183929810    -0.683513547007    -2.451127471477
H      3.485643969530     0.810726537379    -1.170968828849
H      4.459409053206     0.092258072940    -3.303395793404
H      3.094258851958    -1.143268611259    -4.953485182097
H      0.721247790932    -1.635062016364    -4.363962361763
O     -0.420071568058    -1.001862961844    -2.276099209243
H     -0.874825401720    -1.116516039732    -1.315132025130

