# STO-3G

title

0 1
C      0.920349706507     2.579775537462    -0.969512707650
C      2.222980414379     2.991897511431    -0.617151534548
C      2.716511021558     4.238156609275    -1.057308871299
C      1.919451469047     5.076998802813    -1.860447949887
C      0.623688121531     4.662694852044    -2.223585518075
C      0.124093150977     3.419034860053    -1.782313096416
H     -1.321931357865     0.987775604590     4.636709973640
H      2.861131676476     2.346468951794    -0.016272102983
H      3.722351799985     4.545571679034    -0.777009192541
H      2.303916679382     6.036363044148    -2.199074170970
H      0.000055978868     5.301950963214    -2.845556640421
H     -0.884780672553     3.122339214399    -2.067843201115
C     -0.013949796593     1.460385062790     1.681859105826
H      0.658766951582     2.297140182895     1.838443393082
H      0.283439535099     0.521631826284     2.142505708378
C     -1.294884609708     1.612072190955     1.152993848487
H     -1.969293827804     0.768102742906     1.169720398714
C     -1.900667747307     2.912132642713     0.824161685044
O     -2.929255378901     2.931292411988     0.097949332548
O     -1.200371212251     4.094935474950     1.124131813052
C     -1.813496022138     5.316399898762     0.690381017291
H     -1.171664917578     6.173531141787     0.986659600479
H     -1.922018839797     5.332881396886    -0.417387572272
H     -2.812875389044     5.446550263198     1.164037240692
Pd     0.189821914140     0.795095969299    -0.447159227567
C     -0.444524267626    -1.865583741876     0.951562842579
O     -0.821544808361    -1.076262750083     0.012455622394
O      0.800694655995    -2.073401077671     1.269886850157
C     -1.507920212307    -2.447303565394     1.923119247880
H     -1.011431639761    -3.217250611074     2.534423392043
C     -2.702844938297    -3.040435604150     1.218722701662
H     -3.419575979012    -3.424802517449     1.973040053583
H     -3.209926812052    -2.249853058834     0.625101270387
H     -2.387756947858    -3.866689292185     0.549645383049
N     -1.972218979025    -1.249853814447     2.627214339666
C     -1.506281601191    -0.775531347291     3.706698504955
O     -1.972438310146     0.458218544901     4.134688437053
C     -0.510704444543    -1.480953338188     4.553894797516
H     -0.949271498177    -2.446753306195     4.856378001184
H      0.411654816948    -1.624367871550     3.966992097295
H     -0.297975860937    -0.880347622782     5.455776055743
N      1.452897274132    -0.047381876017    -1.871164754975
C      1.420352425545     0.376419412350    -3.172826531046
C      2.394656597020    -0.033251717759    -4.058006388574
C      3.407655811096    -0.868487922844    -3.645939238338
C      3.416230638705    -1.287269469006    -2.342085790315
C      2.398328498982    -0.860217823485    -1.458500234146
H      0.628749564677     1.036741483279    -3.506973918580
H      2.361886278619     0.311452294305    -5.078479025443
H      4.180722183629    -1.189547791452    -4.339017092096
H      4.176786612576    -1.939571115684    -1.962246060719
O      2.517411272542    -1.322433074202    -0.245538449946
H      1.679507240774    -1.584473492743     0.472037398382

