# STO-3G

title

0 1
C      0.743830820227     2.592986118221    -1.349689561250
C      1.863284403080     2.525022035291    -2.217967413296
C      1.956595208363     3.355082285479    -3.351487332187
C      0.935792761725     4.281131549297    -3.643636752434
C     -0.167055536478     4.377922211578    -2.778658670149
C     -0.258297562932     3.552613869375    -1.636199519822
H     -1.568199972203     1.715237093936    -0.970364571723
H      2.674382899608     1.831466228351    -2.007466039257
H      2.829767199259     3.282469725922    -3.997381846264
H      1.007152451160     4.921656659054    -4.519421645651
H     -0.958585314889     5.097507361881    -2.978854821150
H     -1.117207053854     3.696020755171    -0.983666195275
C      1.622718886929     3.006933437451     1.368505689203
H      2.307911831324     2.513140701933     2.052897327539
H      2.058753588288     3.667102696828     0.628903343119
C      0.232055941516     3.022777687633     1.623281391161
H     -0.405801169553     3.661360941172     1.031573816313
C     -0.380339910712     2.547064823518     2.877539238789
O     -1.636493332835     2.543509781396     2.977283964260
O      0.439945892768     2.201698833600     3.964998341479
C     -0.232215794385     1.712753576339     5.133825387882
H      0.522047263597     1.455764930464     5.908663099456
H     -0.915141379596     2.486111908037     5.551965909131
H     -0.809321013257     0.789306029572     4.902951946480
Pd     0.719383656168     1.350932037007     0.260949224138
C      0.185325711775    -0.777277975036     2.495525434524
O      1.068370283333     0.077615641241     1.956144279405
O      0.374222234235    -1.419154213770     3.549143770432
C     -1.163663498058    -0.964957472302     1.717394306549
H     -1.941868366201    -1.009552214379     2.496928795770
C     -1.165637575609    -2.283515011431     0.971625548549
H     -2.149792681099    -2.439173658798     0.484711528671
H     -0.381757394015    -2.263796264007     0.185836383954
H     -0.969347449141    -3.124497329828     1.669325231914
N     -1.360407555411     0.077725757682     0.716289531236
C     -2.444816778888     0.681807063762     0.416233208808
O     -2.472573418962     1.600459187980    -0.588379790265
C     -3.731662512422     0.460632082726     1.096545406531
H     -3.998584633837    -0.604367203335     1.003393917919
H     -3.611665371666     0.764660100538     2.150613187659
H     -4.504797496113     1.088793119933     0.617211383060
N      1.401493750060    -0.279593934272    -0.959196333264
C      0.834801950659    -0.537144800211    -2.178487358189
C      1.388740613407    -1.496146364557    -3.003434158724
C      2.504282120131    -2.202484941498    -2.607221167908
C      3.034262438893    -1.942664949282    -1.369869807009
C      2.429348310783    -0.967855575630    -0.549505619071
H     -0.036985710070     0.021730811489    -2.499650339283
H      0.943826976689    -1.684007304145    -3.966830381927
H      2.945626178760    -2.955027052615    -3.255241634094
H      3.885746237574    -2.471203051236    -0.990004871084
O      2.978785989077    -0.826413054695     0.643166394848
H      2.333899052243    -0.393456090112     1.340109564175

