# STO-3G

title

0 1
C      1.161578070173     2.740450909320    -1.415403250725
C      2.428452169981     2.994648073967    -1.980057308233
C      2.566516827245     3.975747275818    -2.985416211009
C      1.443841933613     4.697435714518    -3.433853422448
C      0.178588498614     4.437056998836    -2.872415840182
C      0.033445136807     3.462588465719    -1.862809638640
H     -0.643736128412    -0.630421786110     0.400578332840
H      3.303512169537     2.433614483498    -1.656490032807
H      3.547733453295     4.168601120253    -3.414739251159
H      1.553484181688     5.452588146377    -4.208636883899
H     -0.694373823325     4.990773979279    -3.212315712676
H     -0.952135200326     3.273447820014    -1.440240503293
C      1.774427202687     2.467489987011     1.625973802599
H      2.008399468857     1.732450296242     2.393526859887
H      2.615256893728     2.927263494860     1.115891366643
C      0.481068059110     2.964322957778     1.444884233092
H      0.321671194025     3.772511892642     0.748692153150
C     -0.654196506858     2.721249882676     2.353064482279
O     -1.782121160316     3.177861996978     2.028966394493
O     -0.420233728179     2.174716435856     3.624868283618
C     -1.546500952070     2.139742866558     4.513073400180
H     -1.243598289427     1.663877553697     5.470104105318
H     -1.909467637664     3.168644946236     4.732470023750
H     -2.378908810031     1.539435300772     4.081623871939
Pd     0.933289587271     1.286746523398    -0.065020225178
C      0.563363381306    -0.623405597068     2.589070203976
O      0.715200734101    -0.490614384054     1.239284587854
O      1.480238373023    -0.362608417355     3.392551580985
C     -0.831946995789    -1.136819609911     3.060641769811
H     -0.837256318698    -0.962837684031     4.141671937817
C     -0.972955328828    -2.630885066897     2.829505211976
H     -1.926872872035    -2.986005391740     3.272169795517
H     -0.987033486926    -2.837456185941     1.739394023987
H     -0.129918163961    -3.177373245321     3.300958732438
N     -2.035821218189    -0.492843479707     2.516929161699
C     -2.335790042160    -0.228156915408     1.299563297720
O     -1.594926987580    -0.397889734621     0.153303999653
C     -3.668229027680     0.338842545789     1.073058461588
H     -4.408218300980    -0.378284920671     1.465811503038
H     -3.723046720157     1.290835228061     1.628389541758
H     -3.823726149119     0.509800147862    -0.006742581705
N      1.183273380761    -0.146115212840    -1.614784649580
C      0.663025267898     0.036393366446    -2.869150132659
C      1.097630835088    -0.749518511483    -3.918080992618
C      2.039009119444    -1.734357999678    -3.713151296016
C      2.519578569315    -1.920667654988    -2.443720959155
C      2.042277561782    -1.105657415723    -1.396699389937
H     -0.080126246136     0.805179537967    -3.043008019813
H      0.690210542997    -0.589215696276    -4.902628188004
H      2.381631335028    -2.356751751690    -4.535456392958
H      3.232134016723    -2.685963866770    -2.209626230344
O      2.526548513328    -1.395471825891    -0.204481517858
H      1.935889786682    -1.006287011596     0.559828234978

