# STO-3G

title

0 1
C      0.679830289295     2.544494376545    -1.308365147453
C      1.927932347880     2.926806926504    -1.854249296348
C      1.986654539229     3.732951840460    -3.009323218532
C      0.800716943492     4.165764488961    -3.633727529232
C     -0.441480068587     3.782304511844    -3.094791309756
C     -0.507444493635     2.975266739706    -1.937769805877
H     -3.116467674550     2.814457902060     0.583571852881
H      2.855555512031     2.587493851800    -1.396012916317
H      2.955372570297     4.018194797687    -3.416275874664
H      0.845241328827     4.789610249378    -4.523861438276
H     -1.365012709067     4.107410594990    -3.571653716200
H     -1.469955502961     2.678674358774    -1.536391180730
C      1.568982644795     2.827628825066     1.451020796125
H      2.259112211220     2.300257435531     2.105400062945
H      2.005305175502     3.514739990624     0.738044250352
C      0.186329888545     2.869006210291     1.733821538152
H     -0.448795674022     3.544384011230     1.178444411164
C     -0.397118597566     2.335887198534     2.980875644304
O     -1.635940056718     2.457013808417     3.179257891437
O      0.451496202692     1.828615169221     3.980545788663
C     -0.194310409045     1.245537149826     5.120349441548
H      0.578087035641     0.867860643167     5.824595823749
H     -0.815971523390     1.999385720202     5.654041739199
H     -0.828494490553     0.382535545968     4.816275445408
Pd     0.621830655462     1.262444803519     0.242431811478
C     -0.041513775012    -1.111117165314     2.206337953754
O      0.845007717101    -0.174005371737     1.862371970205
O      0.102673554017    -1.940197869920     3.129402922415
C     -1.364620687903    -1.137874137907     1.359133200626
H     -2.145608558642    -1.468800574676     2.062635574830
C     -1.276581404207    -2.153089977332     0.241256782434
H     -2.242713965480    -2.192286080254    -0.302495432688
H     -0.482227167005    -1.852993137187    -0.471493673468
H     -1.046203825096    -3.159236893122     0.649643825094
N     -1.588864788137     0.158699417427     0.726981634892
C     -2.622243373162     0.890401939333     0.832751097262
O     -2.657908648782     2.080970197893     0.127980718189
C     -3.821887880557     0.513612011474     1.617170460732
H     -4.196740284767    -0.452085147017     1.239631816616
H     -3.528277989426     0.458023923006     2.679402273995
H     -4.600133033608     1.286896699434     1.490772581815
N      1.581719576824    -0.193986853506    -1.034759562549
C      1.285250443436    -0.306355434858    -2.367862027679
C      2.111421453399    -1.036798692638    -3.198505934894
C      3.235701073393    -1.657746366975    -2.700028194516
C      3.501865017926    -1.543598183334    -1.360879562618
C      2.627317029284    -0.799973456754    -0.540940786925
H      0.402534782093     0.176855697691    -2.770571542196
H      1.872751887997    -1.112356520328    -4.246694286063
H      3.890939709332    -2.229896255041    -3.351490418855
H      4.351102677645    -2.012984928768    -0.905534173458
O      2.963695836969    -0.773980218016     0.735481938934
H      2.183382765827    -0.492672692714     1.375293403725

