# STO-3G

title

0 1
C     -0.945443258677    -0.840103997943     2.187259869348
C     -1.555005233522    -0.700224192811     3.448739044877
C     -1.172958035602    -1.541373600075     4.513127102365
C     -0.179884085200    -2.521034624786     4.313168994033
C      0.432129226539    -2.657102764553     3.050440039342
C      0.050389225614    -1.816767481940     1.986170945606
H     -1.231325187264    -0.185517033941     1.362284355168
H     -2.313560191724     0.065290188464     3.603532212054
H     -1.643546048902    -1.432232461061     5.487987735156
H      0.114595329077    -3.171469438747     5.134075221319
H      1.202326512134    -3.409863208300     2.897060062654
H      0.519584930179    -1.907104198702     1.009595981491
C     -0.300462004977     2.821439036657    -0.448282081869
H     -0.975270986005     3.390934497451     0.189660946800
H     -0.272779138325     3.044401469191    -1.511566423753
C      0.672434507973     1.993232242930     0.071730050408
H      1.370429685701     1.502968491143    -0.592090641965
C      0.911486420028     1.798070946285     1.513530095594
O      0.072257053206     2.239963186330     2.343980558122
O      2.023544143378     1.045966397035     1.925226791500
C      2.159821428001     0.847878353524     3.339642312009
H      3.063991564201     0.234041724385     3.538725665488
H      2.273369134397     1.821639271409     3.866943416616
H      1.279601889958     0.304948843140     3.752266743625
Pd    -1.262725223193     0.694340827111    -0.858548678044
C     -3.868083152356     3.086026821014    -0.944618582921
O     -3.234248334372     2.076141303715    -0.889388240653
O     -4.501822406697     4.090297823345    -1.001614928991
C     -1.522937470481    -1.178531862018    -1.903374378317
H     -1.851318777687    -1.034074053060    -2.937373275777
C     -2.200761408084    -2.260661688443    -1.127010462886
H     -1.811224990950    -3.244120573182    -1.459674740940
H     -1.996460744958    -2.146818019904    -0.045508091526
H     -3.294921242340    -2.218039576829    -1.300783807029
N     -0.233956148806    -0.970844240274    -1.503189245314
C      0.984580650446    -0.929750554094    -2.104796850425
O      1.938945439018    -0.179796275356    -1.777380764284
C      1.201275465293    -1.958298209772    -3.145396695831
H      1.022265417548    -2.946756858089    -2.689069891439
H      0.503085122219    -1.766784852939    -3.975718888781
H      2.244651358649    -1.885614378705    -3.504020486429
N      0.757072566212     2.069146212854    -3.434829583693
C      2.083778979699     2.142327127257    -3.766612782517
C      2.506703986345     1.694469133869    -5.007419231461
C      1.602631111557     1.171329847084    -5.909907652110
C      0.284906539992     1.087584199588    -5.534644956509
C     -0.079890233236     1.556705220790    -4.256460059641
H      2.794568595932     2.557912900127    -3.061707320640
H      3.551432347080     1.761145828842    -5.263201797071
H      1.928257449323     0.825857811047    -6.887517818236
H     -0.472821108221     0.689804508993    -6.179265063096
O     -1.393464365170     1.375246779905    -3.950290325608
H     -1.513961362108     1.449173125625    -2.965845436832

