# STO-3G

title

0 1
C      1.870347366708    -0.764703117531    -1.458099514722
C      3.256862475705    -0.622986844648    -1.658826994646
C      3.999445102032    -1.675610675503    -2.231046459620
C      3.352789169646    -2.871459650276    -2.600780615312
C      1.965371583074    -3.014516021047    -2.395708799998
C      1.223422657466    -1.963371980329    -1.822965791523
H      1.282884578594     0.038172215800    -1.012998965891
H      3.758623292605     0.299611795998    -1.375442553932
H      5.069945446033    -1.564655004759    -2.388277443742
H      3.923667360902    -3.684015603283    -3.044635277395
H      1.464382211282    -3.936926024690    -2.680354295497
H      0.154675301825    -2.070996491732    -1.650240659365
C     -0.683019378836     1.251214008694    -2.380092790636
H     -0.307110492110     0.354983250227    -2.861909305885
H      0.070964566529     1.980859474177    -2.101314944137
C     -2.028095703091     1.535516866620    -2.320521651543
H     -2.365849415437     2.482374231941    -1.920857324164
C     -3.077161605361     0.716303954709    -2.955680587087
O     -2.745310012573    -0.259798290140    -3.682691034673
O     -4.399868314140     1.191594071559    -2.925639993128
C     -5.375300043356     0.347751509931    -3.552703300258
H     -6.380544998252     0.809070902623    -3.452737028670
H     -5.153517425377     0.223879449845    -4.636846961644
H     -5.400602279077    -0.653164777820    -3.063614142736
Pd    -1.154551388870     0.593922608001    -0.116579077023
C      0.091445659757     5.069978540576    -2.195981836047
O     -0.888601656322     4.574240952732    -1.713760088206
O      1.016327926297     5.599920313842    -2.717659139581
C     -1.316358773351    -0.782299035074     1.504688528964
H     -1.945734578150    -0.446781560115     2.335172092786
C     -0.023275454972    -1.433302658022     1.876563540487
H     -0.236694106627    -2.430203230954     2.313332417726
H      0.608498484051    -1.575364545690     0.977742696685
H      0.515691718135    -0.817881782945     2.622879297042
N     -1.847445390848    -1.287932204500     0.342556393979
C     -3.121362234811    -1.655799215126     0.018066305721
O     -3.792396159184    -1.215709350143    -0.943827889088
C     -3.668999616473    -2.757359762511     0.839681211635
H     -2.978969626713    -3.614590187621     0.754378652608
H     -3.747458615349    -2.415178866589     1.883176822000
H     -4.666002581852    -3.032825840398     0.448786394752
N      1.561841760840     3.445825007640    -0.599985243456
C      2.928695352148     3.441751495370    -0.649973254251
C      3.643681352435     2.670251405223     0.252977119264
C      2.989369932078     1.926213370905     1.215077360432
C      1.615186179497     1.954470393770     1.239114881086
C      0.951543493399     2.756696332286     0.290320729714
H      3.443524281066     4.031615648650    -1.399925437563
H      4.721026938298     2.675428636242     0.210835899860
H      3.549492954330     1.341690398184     1.940437953148
H      1.052694399421     1.455417192909     1.996560476219
O     -0.408120632769     2.727275168079     0.368008563607
H     -0.807347844832     3.373713986652    -0.262306816708

