# STO-3G

title

0 1
C      1.893564473983     0.514222423370     2.849169886374
C      1.502808811082     1.873873746334     2.812966237283
C      1.985921010935     2.784678118305     3.777034789035
C      2.859410026595     2.350996696821     4.792018993082
C      3.245648594305     0.997161980381     4.837292997434
C      2.765766059150     0.083380254241     3.876421311809
H      0.640656449415    -1.546011026369    -1.173530297540
H      0.820371289464     2.235291416721     2.047630360917
H      1.673852997711     3.826910387829     3.735071946811
H      3.227775879234     3.051442962048     5.538412166362
H      3.913452472280     0.646039339458     5.622372528702
H      3.066099096320    -0.960229854261     3.938209603554
C     -0.330687285729    -2.732333363065     2.696274116265
H     -1.009788779300    -3.254300658653     3.375209588219
H      0.263834021321    -3.388936396710     2.062250434539
C     -0.172595887471    -1.375094528808     2.668448414325
H     -1.635589806287    -1.070320800268     1.003538000844
C     -0.851301676825    -0.512593214878     3.665934006613
O     -0.861166232494    -0.846320677310     4.880883663723
O     -1.413916679080     0.701481593157     3.233787184433
C     -1.928882093958     1.551742300913     4.267830442993
H     -2.345643742430     2.476192896346     3.814003156817
H     -2.744079948937     1.042402632866     4.830741078513
H     -1.119087289034     1.845189588332     4.975070944850
Pd     1.352453168839    -0.783087751248     1.429470947931
C     -0.164863754163    -3.274728896346    -0.469145665637
O      0.895709405408    -2.369100019256    -0.591542500204
O      0.030103562461    -4.480027882529    -0.352051827845
C     -1.559255258394    -2.595258624890    -0.435227025991
H     -2.130774959578    -3.155770441974     0.311225089745
C     -2.283576633590    -2.708558992052    -1.761868833431
H     -3.282284280846    -2.231084331848    -1.684226340049
H     -1.701479679958    -2.201043358497    -2.558873814685
H     -2.413914429699    -3.776470859437    -2.035195337647
N     -1.554254916801    -1.189859557807    -0.010472273380
C     -0.965318527884    -0.176248503509    -0.685713764126
O     -0.168698695707    -0.339416326427    -1.663128951726
C     -1.306575600447     1.186711380628    -0.251124234434
H     -2.396480407753     1.308985444742    -0.372012412906
H     -1.028304871425     1.301367481170     0.805578241917
H     -0.765503635527     1.913654699808    -0.883601690974
N      3.181904342417    -0.427085153362     0.275911554894
C      3.743170237772     0.824157849744     0.299394016149
C      5.087829024240     0.988018066558     0.031147327388
C      5.877526794901    -0.098001884911    -0.277356090253
C      5.288953720239    -1.333523867472    -0.324174051082
C      3.910165198905    -1.450698485585    -0.055026374634
H      3.133520086360     1.687662688263     0.533658213830
H      5.518854613204     1.975151970703     0.064204017340
H      6.936368813675     0.024047768844    -0.489725705526
H      5.836295487082    -2.218842592636    -0.580511779778
O      3.438741158097    -2.690240166089    -0.165243268482
H      2.437306240194    -2.729698339799    -0.231496571082

