# STO-3G

title

0 1
C      0.185126414645     3.954580386603     0.229068525611
C      0.607019054255     4.766308174870    -0.850858953590
C     -0.324701214898     5.435604258628    -1.660822158199
C     -1.702304881801     5.316197858522    -1.394930452100
C     -2.134257406537     4.524006904845    -0.312083608704
C     -1.201962315009     3.850350669745     0.492749979591
H     -3.701953960679    -0.887520230725    -0.489830429448
H      1.671093036697     4.858824432554    -1.061504381632
H      0.019068846156     6.046767515574    -2.491742029690
H     -2.427238312760     5.836529454770    -2.016504286713
H     -3.196751170683     4.441297990228    -0.092918666399
H     -1.553605399284     3.255216186346     1.331561055522
C      1.216235509065     3.299678529558     1.068054719210
H      3.266352923755     1.504818435341     0.539407765132
H      2.195639271794     3.773256478680     1.030470425998
C      0.979149892927     2.321823780896     2.043277599949
H     -0.014820529537     1.921846923394     2.188985120874
C      1.926664900290     1.976760486873     3.113298208300
O      3.157702451330     2.148374746913     2.902619291828
O      1.475355371661     1.193810713246     4.186449706519
C      2.475627891240     0.766384664895     5.121644459655
H      1.993816101086     0.168636959203     5.925706279444
H      3.235260830863     0.122299679415     4.623161024796
H      2.978813744349     1.640950652104     5.592830585777
Pd     1.801082800261     1.278726983141     0.182446676570
C     -0.774585704691     0.004176136099    -1.297345748457
O     -0.528675622416     0.210718093370    -2.483009470182
O     -0.350758004067     0.876004690163    -0.306008853488
C     -1.571065714649    -1.184838249802    -0.676415310625
H     -0.898272555231    -1.619426926798     0.077213949447
C     -1.928196769500    -2.246666649453    -1.691007848089
H     -2.470816275584    -3.074072254209    -1.189359339145
H     -2.576112804400    -1.805482573162    -2.476100491055
H     -1.005564317659    -2.647604151409    -2.159946965501
N     -2.818110278161    -0.716938966698    -0.027588301020
C     -2.821299915920    -0.056179250731     1.146565904521
O     -1.778101293284     0.378903541687     1.719034388981
C     -4.134599434035     0.183017128886     1.769443308440
H     -4.608534314432    -0.797847626056     1.944516567971
H     -3.984977692830     0.717136092946     2.724051454709
H     -4.740626468526     0.791075823414     1.075244376597
N      2.477953195038    -0.226459340211    -1.021719054771
C      3.344336962812    -0.108211352622    -2.070915021099
C      3.790269394702    -1.235974213957    -2.724260720513
C      3.352483609985    -2.487168048135    -2.349275678435
C      2.473835337355    -2.590368878269    -1.303624812598
C      2.028387372144    -1.425071752357    -0.630873519181
H      3.686618494477     0.872021348244    -2.381476143673
H      4.472584004079    -1.133520912216    -3.552026228519
H      3.694427761293    -3.374733190419    -2.874942418510
H      2.091880321194    -3.534439396254    -0.971886321928
O      1.186446711997    -1.585128737618     0.319088042334
H     -0.737599986731     0.621842427222     0.607234889461

