# STO-3G

title

0 1
C      0.963691919097     0.204286872004     2.668762668845
C      2.046441719766    -0.707668944897     2.497834679885
C      2.098123863769    -1.893193373230     3.275888554891
C      1.104420225716    -2.146240743789     4.231456239005
C      0.018488642468    -1.244152351452     4.398117946045
C     -0.058136600845    -0.085748859433     3.619850370686
H      1.025509904630     1.194252927089     2.226006249137
H      2.872437496412    -0.430929952641     1.848802497215
H      2.934022120012    -2.577119614174     3.155267502213
H      1.166290719405    -3.033581012300     4.857538804905
H     -0.744152828890    -1.448293826306     5.145886816476
H     -0.878879502127     0.614760274715     3.750311909331
C     -1.407408587729     2.333884942489     1.222304655173
H     -0.854740026854     2.989412745816     1.893267094600
H     -0.947398202746     1.379337287699     0.985456664798
C     -2.594289638473     2.643613883409     0.653806343246
H     -3.043393970300     1.922896850911    -0.017109609305
C     -3.339089990771     3.893851399398     0.874667998520
O     -2.880566214580     4.772456243758     1.654434248620
O     -4.561047408528     4.078839247741     0.203966924929
C     -5.232898653762     5.321019659507     0.456768475317
H     -6.179248842522     5.353173856428    -0.124836186180
H     -5.484556562904     5.422173983421     1.536959868826
H     -4.601932405251     6.183247786253     0.142203505296
Pd     0.550261526201    -0.389174866156     0.388635091414
C      2.012314316005     1.622724872801    -1.077134950605
O      2.058402881552     0.886266429498     0.057676087592
O      2.806157253616     2.549188470568    -1.310525360432
C      0.904633104459     1.216078389116    -2.096457731592
H      1.430722718361     1.011239904175    -3.035426477532
C     -0.100619392554     2.320786647460    -2.335442963193
H     -0.841934059289     1.999971738603    -3.096867781185
H     -0.630876760411     2.570496258430    -1.397535957581
H      0.417760352539     3.230233134710    -2.706456349665
N      0.163464935910    -0.024438539528    -1.698997327271
C      0.542828646564    -1.176181261151    -2.430011934690
O      1.584432388910    -1.256234886414    -3.095186131943
C     -0.390094080428    -2.318669659829    -2.401705142878
H     -0.029095946252    -3.079714111875    -3.118231868295
H     -0.394695975694    -2.750835480640    -1.390605390431
H     -1.395662095417    -1.975424326816    -2.705145511352
N     -1.137277221769    -1.511277999692     0.700845695515
C     -1.171404594904    -2.573363757490     1.561007239796
C     -2.367519875990    -3.197834836245     1.837837940821
C     -3.539937371122    -2.762736482700     1.262205711555
C     -3.488039855948    -1.713299913567     0.384095002666
C     -2.251817988753    -1.089722996754     0.095979956122
H     -0.256123513428    -2.937669709532     2.005645952116
H     -2.382395197361    -4.031351147889     2.521156386485
H     -4.484435485510    -3.250423826282     1.489215842449
H     -4.365145856268    -1.340577402319    -0.106449063452
O     -2.281108143584    -0.135705517044    -0.764892102410
H     -0.889679474508     0.050374030575    -1.470296428958

