# STO-3G

title

0 1
C     -1.309372184867    -2.498635451768    -0.175621670203
C     -2.275799538124    -2.358371991690     0.860899786068
C     -2.321045247434    -3.302012433944     1.912478256373
C     -1.432841992498    -4.390885412139     1.915222240586
C     -0.463360631124    -4.534254108393     0.890081892407
C     -0.397277956140    -3.592930515761    -0.144516586285
H     -1.408134165812    -1.909609305644    -1.085956234199
H     -3.006628609459    -1.558588373184     0.790174056007
H     -3.064755072746    -3.199150490849     2.697902166562
H     -1.491157730180    -5.134643812422     2.706703929954
H      0.217440047667    -5.381472751465     0.900611516906
H      0.330830542084    -3.698341650587    -0.944441286868
C     -1.010916773416    -0.185826003054    -3.417733684672
H     -1.412937456603    -0.124152867606    -2.410015754617
H     -1.698080053133     0.092403082178    -4.210164954432
C      0.260686201102    -0.567048517071    -3.685086946916
H      0.624479388839    -0.611693606647    -4.700934470987
C      1.247008945250    -0.937519456001    -2.662078044187
O      0.914987100801    -0.906935939091    -1.447242232677
O      2.507554963740    -1.404115100467    -3.070204009433
C      3.466542232108    -1.610943435046    -2.023678717009
H      4.409112411177    -2.005706151961    -2.459302768467
H      3.702218364420    -0.649344032720    -1.514102426209
H      3.093889728658    -2.347013301628    -1.274963528845
Pd    -0.420916428368    -0.386496030214     0.553936259906
C     -2.048068522318     1.668043736805    -0.677259352083
O     -2.083709511445     0.358793300786    -0.344917219020
O     -2.968005908327     2.247563324800    -1.281918414730
C     -0.759090568545     2.433826073423    -0.230683366288
H     -1.092435206717     3.380360739362     0.213652074161
C      0.132850778989     2.765855115479    -1.407521638126
H      0.984127737125     3.393737330289    -1.069114407021
H      0.537390968879     1.834536623003    -1.852779284847
H     -0.438026011582     3.323206642854    -2.179748713651
N      0.057684634587     1.658444490730     0.759329835663
C     -0.073791778531     1.961485239690     2.145082775019
O      0.893018351976     2.080630170355     2.903157162625
C     -1.438118706996     2.075484553985     2.708188538896
H     -2.201737081784     1.718979680323     2.000433401896
H     -1.468144900841     1.449749595977     3.617853866263
H     -1.608068088093     3.131356089146     2.983157904032
N      1.315268837521    -0.946763263740     1.475293890739
C      1.367204843965    -2.027704295871     2.306725327204
C      2.583780075411    -2.508917696660     2.739899169244
C      3.756296654487    -1.895997093542     2.360881980321
C      3.690404530613    -0.799095508181     1.544645619557
C      2.433623728394    -0.309822354540     1.107046870505
H      0.451608204297    -2.498670486296     2.634702021106
H      2.610547406061    -3.362895974751     3.395383817076
H      4.714605833105    -2.266086111279     2.714702688249
H      4.564886080351    -0.257498027687     1.248166015628
O      2.467557149031     0.748868507919     0.382553056634
H      1.103308752744     1.473659422849     0.517054413354

