# STO-3G

title

0 1
C     -1.844798214781    -2.388890929949    -0.229128484706
C     -2.945961827340    -2.234862862754     0.663676262731
C     -3.155366945279    -3.188313711451     1.693695218524
C     -2.300091003011    -4.292960720421     1.807945955781
C     -1.195009580106    -4.443720785003     0.926465034848
C     -0.962181912202    -3.497923377721    -0.076008839491
H     -1.799744422683    -1.783812341427    -1.129671025346
H     -3.670966084869    -1.447683847163     0.477043458718
H     -4.005813045386    -3.078122497117     2.361250979620
H     -2.485651367043    -5.046743441402     2.569925540226
H     -0.540827754481    -5.307011387420     1.022432077309
H     -0.126472644077    -3.610224985885    -0.761594271002
C      0.729782582388    -0.900700295981    -2.055349077061
H      0.140270204117    -1.339059126526    -2.858635239617
H      0.191563543849    -0.633535609284    -1.150605659627
C      2.057120729129    -0.653555010576    -2.122411404052
H      2.537945176647    -0.197097220603    -1.267081755751
C      2.918966918766    -0.963957478055    -3.274640878616
O      2.430753385997    -1.516888950827    -4.297474226046
O      4.287395086041    -0.649445134954    -3.197754793280
C      5.071735798089    -0.978057023928    -4.353236771348
H      6.128664161529    -0.683530860464    -4.177107650825
H      5.044063852696    -2.073603396111    -4.551801246121
H      4.702963965531    -0.430675885032    -5.250399890538
Pd    -1.185548293387    -0.317468204312     0.765764243041
C     -2.306604542836     1.629151920036    -1.044374421581
O     -2.556243939153     0.415791407638    -0.497706083532
O     -2.984665944539     2.101254973638    -1.972031290848
C     -1.124915770527     2.423010620981    -0.406633299813
H     -1.564336704857     3.363353029722    -0.055233179002
C     -0.027941597165     2.742967278716    -1.398607503932
H      0.754290712927     3.360102574888    -0.909233806937
H      0.435383648802     1.814162726382    -1.781973731266
H     -0.445971736908     3.314794373714    -2.254044390289
N     -0.512387628930     1.731081327243     0.773085471293
C     -0.856464800296     2.308950375168     2.018999844778
O     -1.804292166713     3.090416616516     2.176167007684
C      0.002251559879     1.966644828896     3.168805075009
H     -0.144354366108     0.906702512437     3.423025612888
H      1.053127145005     2.183659741996     2.908188734323
H     -0.299185631008     2.589979555343     4.031677831504
N      0.380472877012    -1.037722289493     1.874407492221
C      0.245467633470    -2.057259135842     2.775074892840
C      1.360657872251    -2.596685651325     3.377448429101
C      2.619756784335    -2.126035722462     3.080152515719
C      2.738524038347    -1.088149871542     2.194747000348
C      1.584825403778    -0.532593051893     1.594351660261
H     -0.738238826982    -2.424019249241     3.032044405137
H      1.241929793433    -3.403319554844     4.082486596967
H      3.499537529331    -2.559447505483     3.548724604931
H      3.690893767602    -0.669760577248     1.936250791846
O      1.776923746630     0.462851384590     0.803710342831
H      0.503665285236     1.371743057251     0.693674491674

