# STO-3G

title

0 1
C      1.238870754032     0.223786792120     2.651340682712
C      2.105454756947    -0.858393650531     2.324727023132
C      2.059654151335    -2.053201425419     3.083884442196
C      1.191784672978    -2.151610308378     4.181880617516
C      0.326974648302    -1.075510375917     4.514927526041
C      0.341758480332     0.096689887108     3.751697454284
H      1.417505606109     1.198014675582     2.205698392268
H      2.852467452977    -0.719294690457     1.548707434138
H      2.728360714186    -2.873142505239     2.836074568694
H      1.185756852249    -3.053451483117     4.790034683812
H     -0.335366360017    -1.157983024478     5.373315545532
H     -0.307325885272     0.928838836387     4.015447355021
C     -0.595831267693     2.721027610977     1.172507261109
H     -0.757119676405     1.965671401517     1.936946420878
H      0.436703014571     2.961524989698     0.933558048874
C     -1.633124780181     3.317470751132     0.542326094871
H     -1.454764651484     4.057498550744    -0.224660167595
C     -3.051932550690     3.020735357061     0.802948296988
O     -3.371915022726     2.278118762815     1.772282872909
O     -4.028233994397     3.696945012455     0.049633827548
C     -5.390286155359     3.362867037220     0.349509552971
H     -6.066344782647     3.947224469208    -0.310885820581
H     -5.578169230113     2.279981961576     0.170805123091
H     -5.635203272675     3.612277882875     1.406925383124
Pd     0.390157856436    -0.130759268165     0.416821095720
C      2.055514087942     1.543238286143    -1.231511937296
O      2.057845713565     0.883740248279    -0.050373084302
O      2.897608863280     2.411990653797    -1.518921674297
C      0.949185682911     1.106427043625    -2.239529676033
H      1.489757963179     0.677701660046    -3.091415408128
C      0.106830906018     2.260276946210    -2.733118267524
H     -0.595867815060     1.904146972897    -3.515203745283
H     -0.476846870719     2.687700035060    -1.897956514464
H      0.755511758640     3.049192834294    -3.169042110782
N      0.033222626344     0.054072526155    -1.699182791148
C      0.228068932548    -1.224203031624    -2.274520496505
O      1.243201995956    -1.546160503138    -2.908759121215
C     -0.871065467311    -2.196595611957    -2.125396172525
H     -0.639674335551    -3.081224623326    -2.747030608368
H     -0.934434262110    -2.505030593732    -1.071949923594
H     -1.813606994073    -1.737258976254    -2.474244023474
N     -1.441511041274    -0.930473973590     0.845242820835
C     -1.628828962169    -1.882496677324     1.808123837235
C     -2.901353088044    -2.299395928659     2.129877706790
C     -3.999840790334    -1.759644459769     1.499955158499
C     -3.799632018701    -0.830446351176     0.515188761538
C     -2.487884793314    -0.412782917481     0.188847860015
H     -0.776263869861    -2.330865493626     2.295667538661
H     -3.035103061224    -3.045368075129     2.895875177236
H     -5.004289005742    -2.077149932836     1.766771822228
H     -4.613910124966    -0.382199861526    -0.015540982005
O     -2.382676086005     0.433777586573    -0.772602269220
H     -0.993521281869     0.317647249504    -1.477386742981

