# STO-3G

title

0 1
C     -0.208971942532    -2.107761763652     2.127228686455
C      0.416577500232    -3.341917107688     2.468980975914
C     -0.342565250918    -4.511507174697     2.578825701999
C     -1.739037224340    -4.478537147474     2.322204294320
C     -2.366314692427    -3.276865906833     1.963134708970
C     -1.613605445898    -2.078787723759     1.887678118329
H      0.338428231613    -1.176329815833     2.257066437838
H      1.481829665298    -3.359758308994     2.683211372792
H      0.131849740941    -5.443507755746     2.876577099705
H     -2.325627291349    -5.389286582037     2.420520195084
H     -3.437618543469    -3.247772650446     1.783207292187
H     -2.102881325161    -1.122404838201     1.730318876318
C      3.075531654253    -1.424628561659     0.951976425107
H      3.044826535437    -1.819708916079     1.964450543381
H      3.219333102196    -2.140497599382     0.149229585233
C      2.921463320232    -0.110669777360     0.673374378146
H      2.955371119013     0.207947952711    -0.359664355477
C      2.671176404705     0.940355450900     1.672931174486
O      2.557275564869     0.635757479493     2.890498516738
O      2.400788444433     2.239757832923     1.212195299651
C      1.888947036760     3.156665325359     2.190148162638
H      1.689484833153     4.138256158216     1.708310362125
H      0.925846268048     2.786875276993     2.613063492916
H      2.621448466546     3.310714522608     3.014370947597
Pd    -0.097524815474    -1.260679223328    -0.135386724708
C     -0.586421685102     1.594868335505     0.046513492658
O     -0.762547991511     0.435157167286     0.728990730671
O     -0.965747712011     2.696600217242     0.476119545715
C      0.237788153537     1.403504193286    -1.265734660311
H      1.294672999993     1.436386621559    -0.980899019549
C      0.004537744451     2.477615774193    -2.309482578712
H      0.541922994270     2.223572221513    -3.246230922479
H     -1.079563402710     2.587226728865    -2.520139349253
H      0.381196827066     3.451129646203    -1.931452131183
N      0.033510524031     0.040391394122    -1.850108168785
C     -1.158093377866    -0.252692807787    -2.549226150373
O     -2.215418192202     0.382630057112    -2.430597535445
C     -1.085533253618    -1.384332887413    -3.494645566748
H     -0.239088180360    -1.219250225119    -4.184440253378
H     -0.965636099042    -2.318433422966    -2.926900920640
H     -2.030486667870    -1.425446612048    -4.068304884014
N      0.708305955310    -2.887308825566    -1.081018293345
C      0.307071414471    -4.163351870436    -0.799195043369
C      0.976408451790    -5.233690238182    -1.350004726222
C      2.050250808160    -5.038544071273    -2.188492976969
C      2.424006672404    -3.755042232672    -2.485059897828
C      1.720241810072    -2.662376954120    -1.925700628246
H     -0.549187851520    -4.331615864050    -0.163115104736
H      0.652482232759    -6.235085924753    -1.116564260790
H      2.580228517396    -5.884711258455    -2.618197212908
H      3.238377068793    -3.540713768455    -3.148420103562
O      2.108361045072    -1.492184352683    -2.286897519168
H      0.933391051868    -0.439629558156    -2.182671376687

