# STO-3G

title

0 1
C     -1.664013801694    -2.369651496478    -0.221857350553
C     -2.521014367132    -2.239344500906     0.908353289714
C     -2.464872640550    -3.198328473435     1.949160776964
C     -1.601130323599    -4.299011438905     1.841677681872
C     -0.751801200849    -4.440099498108     0.712276559194
C     -0.772435395584    -3.477504081338    -0.303228775491
H     -1.833198776015    -1.754949790333    -1.100963094376
H     -3.269067202697    -1.451939734280     0.916201062587
H     -3.124954942936    -3.099497459172     2.806887002109
H     -1.590508324365    -5.058377731432     2.620523916663
H     -0.099455811433    -5.306124658857     0.628838832368
H     -0.141417429950    -3.591386086022    -1.181115671643
C     -0.256471741954    -0.618237004095    -2.816431236782
H     -0.646346791694    -1.479228427064    -3.356719573404
H     -0.958616923251     0.198157181686    -2.677782801222
C      1.004528408116    -0.564698628378    -2.327075504720
H      1.351744560023     0.296777042437    -1.774067410493
C      1.994994114017    -1.650394818542    -2.438193452849
O      1.665695172425    -2.754761097003    -2.950632339292
O      3.262844918447    -1.464500782665    -1.861344015773
C      4.137764121834    -2.600201521424    -1.885076763751
H      5.102878159280    -2.329442737814    -1.405782058299
H      3.694945861922    -3.450418335886    -1.318434111300
H      4.345344052975    -2.918626192547    -2.931914097498
Pd    -0.844019249499    -0.199789683410     0.487780393622
C     -2.580712856968     1.667840114933    -0.861115092286
O     -2.543230405403     0.396273664031    -0.400321110694
O     -3.472922721584     2.085479811455    -1.619261161163
C     -1.432209254447     2.594822697151    -0.354151421109
H     -1.933389831341     3.436904718256     0.136763077049
C     -0.566763739088     3.133515667942    -1.473006345374
H      0.164956165036     3.860511146949    -1.062375483561
H     -0.012275891393     2.313923180960    -1.968129955812
H     -1.197484991248     3.652948669592    -2.225226848371
N     -0.548906329160     1.922481107295     0.646999500178
C     -0.838478829823     2.265778225952     1.988876024444
O     -1.886001984559     2.822740724243     2.345722021883
C      0.199872778578     1.952777624001     2.988911165960
H      0.289291455002     0.860188481658     3.082782465750
H      1.151775312589     2.413351880963     2.670939431756
H     -0.108750440777     2.377158262925     3.962807461048
N      1.008817547266    -0.714996038040     1.202653219862
C      1.218439391478    -1.851142196944     1.933825171545
C      2.495248233127    -2.204077567002     2.312202368418
C      3.574467312983    -1.425254739919     1.961493558951
C      3.348730406373    -0.274804107888     1.255698715999
C      2.032923687886     0.078970029991     0.877523221157
H      0.380102425190    -2.457633994836     2.239711131399
H      2.646000402850    -3.104929536431     2.884306950651
H      4.582560146670    -1.710236162413     2.250410600766
H      4.147306199206     0.372818047688     0.954228130011
O      1.901928308374     1.187709242847     0.237351593222
H      0.502467585932     1.791031038611     0.413742616615

