# STO-3G

title

0 1
C     -1.301566312699    -2.448400615694    -0.191544903077
C     -2.257564438193    -2.314430217569     0.855713402414
C     -2.308678896178    -3.277539000239     1.888691443643
C     -1.438268104500    -4.380553956549     1.861473953560
C     -0.480662828339    -4.519447799336     0.824620825438
C     -0.407551860243    -3.558151586631    -0.191021087757
H     -1.402094706013    -1.844066624570    -1.091525037406
H     -2.976088519867    -1.501944943506     0.807155012757
H     -3.043065727482    -3.178329296900     2.683292374858
H     -1.501619105783    -5.138750791068     2.638773607600
H      0.185247551783    -5.378406938404     0.811774835312
H      0.310557975955    -3.660959685216    -1.000197950583
C     -1.040657743031    -0.236728186962    -3.395119226008
H     -1.406744357776    -0.071208647741    -2.384768679442
H     -1.749880763862    -0.020426537217    -4.187619610823
C      0.213089000367    -0.670432998240    -3.668702440632
H      0.539878403370    -0.815266443291    -4.687697236302
C      1.227810738779    -0.967025078702    -2.649302170569
O      0.930502296935    -0.842026718808    -1.431901223598
O      2.482192762624    -1.452162094912    -3.054186105343
C      3.458364230805    -1.601562175956    -2.013212618877
H      4.399935796977    -2.003885439806    -2.444153576073
H      3.687961918030    -0.616514125156    -1.546182551966
H      3.104289524788    -2.309204056206    -1.228791491989
Pd    -0.380418817556    -0.352346750496     0.551137503717
C     -2.024608848370     1.745534189628    -0.581642892460
O     -2.052291647080     0.420396445902    -0.312168719283
O     -2.969737408964     2.358001150021    -1.110457861815
C     -0.699073261300     2.474239899585    -0.182206939091
H     -0.975291935897     3.460771440715     0.209076920303
C      0.198150638144     2.701235173353    -1.380071617689
H      1.077446585194     3.310556200061    -1.081735126657
H      0.561801579129     1.732370489565    -1.774115142678
H     -0.353982294675     3.238009112079    -2.179959187929
N      0.079388914133     1.700800334679     0.834699693812
C     -0.159862035867     1.897000333528     2.222887361004
O      0.732598116182     1.838669288488     3.075572386899
C     -1.563741199433     2.089581204025     2.655759050433
H     -2.171118852117     1.246377790431     2.284891976219
H     -1.583135368661     2.097172777917     3.761460463203
H     -1.942765729444     3.056011203166     2.284822908805
N      1.355831602985    -0.938840636592     1.456147364492
C      1.411955346944    -2.047958645399     2.249151602171
C      2.630476041748    -2.537266367997     2.668152115004
C      3.799818472869    -1.901783590076     2.317810126910
C      3.728579450775    -0.773350069895     1.546133625750
C      2.469349225380    -0.275908092987     1.124938730976
H      0.498774313023    -2.537189870050     2.555354334848
H      2.660543909074    -3.414553295194     3.291880856265
H      4.759451926160    -2.278182139749     2.661180537303
H      4.599734261491    -0.212651232356     1.276760296463
O      2.497289567426     0.816604167714     0.451443533915
H      1.135903226806     1.526237301250     0.633622943792

