# STO-3G

title

0 1
C     -0.110720951391    -2.276401377341     2.025769081238
C      0.522909399678    -3.534317261788     2.243616251180
C     -0.230786290489    -4.712234215072     2.247850093777
C     -1.629825281734    -4.660818553079     2.011786297850
C     -2.265814991029    -3.433596463972     1.774110083413
C     -1.517066382304    -2.231412958743     1.800477085828
H      0.439670805079    -1.360140488590     2.229103073969
H      1.592292566877    -3.566605584257     2.432955538267
H      0.251256107083    -5.666830643708     2.444368188431
H     -2.211550918394    -5.579821730621     2.027513951254
H     -3.339062140736    -3.394344734417     1.608232881324
H     -2.008048887324    -1.265934438600     1.726039868972
C      3.118739162334    -1.344008879663     1.254677034218
H      3.112272135107    -1.647862214033     2.299473618271
H      3.295558247810    -2.116088113630     0.511782319764
C      2.899622049501    -0.071262436991     0.854609537131
H      2.918350963056     0.138654881134    -0.205760483762
C      2.597886624676     1.058571014647     1.747040625179
O      2.490269680703     0.869806828324     2.988596790655
O      2.273758682140     2.294979357402     1.162059279286
C      1.754044982495     3.292019521895     2.053383014354
H      1.519327997836     4.214643950228     1.479936666526
H      0.810328841869     2.940733752331     2.531483045788
H      2.497280913150     3.547388155110     2.842234077585
Pd     0.017014297230    -1.353404188015    -0.168790594579
C     -0.580155922123     1.485875640317    -0.063817739834
O     -0.729147204997     0.346883475258     0.647831192697
O     -1.024540962311     2.589845091815     0.300258962146
C      0.257197137607     1.295571102304    -1.375644511541
H      1.303356889274     1.478859826419    -1.104615991713
C     -0.104932027026     2.260552459145    -2.486041436867
H      0.481030153891     2.025104268726    -3.399591063554
H     -1.186990514035     2.208500819719    -2.715863074812
H      0.133784644507     3.298122257333    -2.169860213586
N      0.232904200199    -0.123002760202    -1.879972594731
C     -0.735520082438    -0.655745475293    -2.777792158201
O     -0.426281474830    -1.368973103162    -3.737903914935
C     -2.165617704136    -0.426493698611    -2.483348923320
H     -2.651234820291    -1.416195456699    -2.418183925141
H     -2.304767701322     0.115273923558    -1.536641540814
H     -2.600698208503     0.138459069670    -3.326702640106
N      0.893964132644    -2.930542690836    -1.106607474954
C      0.399800835139    -4.202241600322    -1.035882995947
C      1.111113984024    -5.249654958314    -1.579063982985
C      2.310948774957    -5.029175042576    -2.217571241218
C      2.779451895641    -3.745875255682    -2.310246063160
C      2.032974806904    -2.675272677534    -1.762041668073
H     -0.550035487005    -4.385789672835    -0.552567223888
H      0.714628305713    -6.248996186116    -1.511667529828
H      2.867486654302    -5.854850842450    -2.652781913702
H      3.688173803651    -3.508190856289    -2.825132515895
O      2.508269746743    -1.496472337587    -1.930896498285
H      1.205585013766    -0.482249312131    -2.119299266543

