# STO-3G

title

0 1
C     -1.224917546606    -2.504922542196    -0.561019367957
C     -2.516614354411    -2.060456529534    -0.156551395289
C     -3.288922546694    -2.850774062274     0.730189643274
C     -2.796541958720    -4.086777742533     1.174785626228
C     -1.509991969418    -4.536190682297     0.774130106451
C     -0.726838564602    -3.749377583673    -0.077154829698
H     -0.723895578709    -1.998788836783    -1.380142442862
H     -2.931041424663    -1.162938164609    -0.606865051995
H     -4.278246843777    -2.513442188735     1.027876090231
H     -3.406738416925    -4.712882110454     1.822098913037
H     -1.143692536308    -5.501470300159     1.115590469133
H      0.249219842408    -4.100452699546    -0.403925247677
C      2.208414536937    -1.312286755650    -0.941744402677
H      2.876261590177    -0.544718966371    -0.563147672373
H      1.879513386893    -2.027626764370    -0.191448165076
C      1.784192914966    -1.390902665981    -2.225174121671
H      1.096781790125    -2.171511611830    -2.523400215823
C      2.148504891681    -0.454635554645    -3.301163425907
O      2.945091779434     0.494846947560    -3.067818612341
O      1.618747317527    -0.667260709831    -4.584594959519
C      1.819088117163     0.398330861856    -5.523338919276
H      1.346549454117     0.129110574214    -6.492071527699
H      1.342946129832     1.337488474301    -5.157182432848
H      2.904170149067     0.574918081963    -5.700108462362
Pd    -0.498384813737    -0.467487171949     0.494414830068
C     -0.465238141754     1.407510494336    -1.674367371544
O     -1.117800809580     0.299468975403    -1.252849492995
O     -0.466788700502     1.774964539181    -2.862671969804
C      0.225458059815     2.234312571662    -0.546925607616
H     -0.383879613946     3.140575564848    -0.444844463750
C      1.643524369734     2.642644129265    -0.875928530630
H      2.037104618434     3.310461709091    -0.081924849717
H      2.295874966549     1.751602829866    -0.948590708026
H      1.670886253331     3.184857759699    -1.844605001344
N      0.230343118907     1.539727136568     0.779104643073
C     -0.582191602100     2.158232442887     1.758647365298
O     -1.477207617046     2.974533096192     1.496642404084
C     -0.303975005326     1.812708805213     3.165721363463
H     -0.593088313272     0.766415566736     3.341636360639
H      0.768260871680     1.980819798528     3.369566887832
H     -0.910543026371     2.469948718915     3.816749418986
N      0.398468854203    -1.251748900440     2.161544282163
C     -0.166180683941    -2.240964910079     2.917222106373
C      0.559600540100    -2.838783280445     3.923676673438
C      1.854714656118    -2.452189812747     4.185078568678
C      2.398323527145    -1.439297962340     3.441121606888
C      1.638879605105    -0.820940823111     2.420528872328
H     -1.188338129639    -2.540034662839     2.737953719758
H      0.104878987932    -3.621522906998     4.508999759691
H      2.427895268794    -2.929532084692     4.975713732170
H      3.393817072167    -1.080419195699     3.612851596494
O      2.202484014580     0.152064129959     1.800802573701
H      1.159376235058     1.122818382976     1.139727598892

