# STO-3G

title

0 1
C     -0.452398883883    -2.283370289477     1.966219777911
C      0.676153537815    -3.016933682306     2.434662170805
C      0.641474143431    -4.415949556027     2.461230563791
C     -0.511982721107    -5.104773246789     2.001651182255
C     -1.618125706005    -4.395463559921     1.506235395563
C     -1.604731149901    -2.980502691813     1.502141699897
H     -0.515938172028    -1.217793593095     2.173547256135
H      1.544208103076    -2.476617798748     2.803157191735
H      1.488457144732    -4.976161459940     2.849227757732
H     -0.539904475039    -6.191396994555     2.041909390910
H     -2.501459919673    -4.925709144952     1.160969377717
H     -2.485733790850    -2.410434354111     1.221583937256
C     -0.090386732510     1.421888343916     2.694762167946
H     -0.737579922775     0.868093263328     2.020484952161
H     -0.602017192132     2.027672338617     3.435075195308
C      1.261477155065     1.379613627010     2.627196180776
H      1.868371098407     1.948150215559     3.315634795150
C      2.019748961258     0.599364419558     1.640226434574
O      1.398533568943    -0.087178025080     0.784808906889
O      3.422620532924     0.590788756955     1.711455111164
C      4.097622190863    -0.152837926890     0.687082748588
H      5.195158517414    -0.090695263396     0.848394086808
H      3.803324492445    -1.226883450665     0.714269702069
H      3.873557790423     0.269329762638    -0.319378234272
Pd    -0.374793365810    -1.318584068147    -0.254544500428
C     -2.093242360848     1.007601156531    -0.068946184402
O     -1.927947444129    -0.230287172248     0.475358228944
O     -2.974361341649     1.795726108375     0.307432307529
C     -0.980282187630     1.351991229603    -1.103584793086
H     -0.109009649653     1.689390081534    -0.526281579149
C     -1.352063624352     2.446624393481    -2.083332156044
H     -0.549454913358     2.566960242890    -2.839875969684
H     -2.307200462363     2.203719681020    -2.593268865528
H     -1.483780566447     3.405470076737    -1.540169018193
N     -0.543247689848     0.125635449667    -1.830982167223
C     -1.416573040978    -0.488713206067    -2.750022517271
O     -2.631014646578    -0.252293433225    -2.830705354770
C     -0.794437997854    -1.459274189706    -3.671283347795
H      0.035696939223    -0.960562914764    -4.202137116990
H     -0.435235663700    -2.320805879106    -3.088631019588
H     -1.556418389432    -1.796103990955    -4.398481522414
N      1.203366413082    -2.336736388217    -1.100132100289
C      1.417097960558    -3.654516565750    -0.812551431846
C      2.584489312779    -4.268592559009    -1.210074302171
C      3.544692054408    -3.571246821937    -1.905530670320
C      3.309221104104    -2.257046071473    -2.207350392653
C      2.103868884830    -1.634969607663    -1.796556102711
H      0.656927629501    -4.223196763883    -0.299753499433
H      2.738691084114    -5.309190792939    -0.976178854715
H      4.463639085658    -4.057571799591    -2.222002401649
H      4.008566014921    -1.670371392739    -2.768233765765
O      1.963236028147    -0.412553494625    -2.165611183974
H      0.524724381832     0.062390858865    -2.031826076928

