# STO-3G

title

0 1
C      0.942908109141     0.183086490819     2.704463218573
C      2.060311256896    -0.675380507801     2.487575970530
C      2.185518159581    -1.872536641260     3.238722087392
C      1.230973190339    -2.188688483547     4.215088749512
C      0.113191747202    -1.337758741860     4.431519888296
C     -0.036412326274    -0.169470731034     3.678985682973
H      0.945971534197     1.182782277758     2.277744717962
H      2.853900875032    -0.350533911192     1.820914904438
H      3.046849554212    -2.516107294294     3.080935992987
H      1.348573096257    -3.084988796741     4.820023075882
H     -0.617140811429    -1.588713483630     5.197077454660
H     -0.882228026257     0.491408153543     3.849688808419
C     -1.610578506840     2.172624885996     1.405772074599
H     -1.068865817252     2.807750552219     2.105150581337
H     -1.231834077398     1.165351913987     1.266338902903
C     -2.689883611316     2.571847734776     0.695410226852
H     -3.135306653744     1.869030902135     0.003416440703
C     -3.312051103465     3.903371934363     0.776194596616
O     -2.842834838657     4.772579468934     1.560024733454
O     -4.416992887977     4.182857707498    -0.047161065059
C     -4.964096916011     5.504335808911     0.065426543770
H     -5.826046874626     5.606623203872    -0.628426836722
H     -5.326198436383     5.695945883316     1.101052505246
H     -4.204547976703     6.271642533901    -0.208175616991
Pd     0.503004035895    -0.362594060791     0.411634459448
C      1.931437919490     1.674775949208    -1.055453410783
O      1.984805970968     0.942600848455     0.081724777596
O      2.736478093173     2.586139625091    -1.308066918951
C      0.785028600964     1.295384423600    -2.041966794890
H      1.264698100940     1.144077650049    -3.014904500211
C     -0.245668052231     2.393855071193    -2.172319282093
H     -1.036537533064     2.091704761059    -2.890332185229
H     -0.705776797750     2.603350219415    -1.189194767823
H      0.236837949170     3.322056197853    -2.545215378265
N      0.083696278659     0.026261323048    -1.661675078665
C      0.500781325503    -1.100260258343    -2.411921524772
O      1.541648096313    -1.131662251099    -3.082172759323
C     -0.389961347609    -2.276192930862    -2.397304495314
H     -0.003488700805    -3.013678823179    -3.125080371281
H     -0.376303157319    -2.721893504962    -1.392132923495
H     -1.408071979053    -1.965371033055    -2.693811840482
N     -1.148710082625    -1.538328114262     0.725658673432
C     -1.136631011587    -2.607426275613     1.577837198323
C     -2.305423683252    -3.281679491998     1.854250923893
C     -3.496489824066    -2.891128875178     1.285060771887
C     -3.490389148243    -1.834443618888     0.414226715218
C     -2.281705529925    -1.159007263395     0.126309734234
H     -0.205927194194    -2.936820667688     2.017544843642
H     -2.283974481389    -4.119957837322     2.531596748142
H     -4.419517938579    -3.418607279610     1.511438930199
H     -4.383568315931    -1.494717122571    -0.071306185547
O     -2.353076565398    -0.200637234300    -0.726628603570
H     -0.970848852522     0.059361203115    -1.429765089470

