# STO-3G

title

0 1
C     -0.658416723218    -2.473169691270     2.091306091420
C      0.155896516102    -3.601742045511     2.399828377526
C     -0.389336875626    -4.889023897792     2.375730044475
C     -1.752285480130    -5.078780197017     2.021987236988
C     -2.558356306452    -3.981540899086     1.687917357463
C     -2.025245959436    -2.668487992567     1.738170686192
H     -0.298232668788    -1.471555216309     2.316478868853
H      1.192492407408    -3.451530590941     2.690551292705
H      0.224087705606    -5.745463039971     2.645380069469
H     -2.172786239207    -6.081931632682     2.022731094801
H     -3.604178571189    -4.125031854997     1.429807437582
H     -2.664068010337    -1.800925179339     1.601288324911
C      2.335914900934    -0.929248155927     1.400903957012
H      2.118932609503    -0.958675417404     2.467388303131
H      2.156573234677    -1.839332703264     0.837394929328
C      2.798313941297     0.176136616882     0.771741476618
H      2.966746060394     0.130683666382    -0.296004959133
C      3.074770803745     1.466049791646     1.425438899439
O      2.922348689828     1.586479804618     2.670630091670
O      3.362665597869     2.576973435433     0.613730384036
C      3.508151688682     3.830585774291     1.296353721550
H      3.735104303922     4.629187015149     0.557553049897
H      2.566708628099     4.104938259059     1.825347337011
H      4.344695430895     3.787625806528     2.030392799139
Pd    -0.534626703669    -1.511199890848    -0.106711539323
C     -1.284422983116     1.257551276899     0.278985439006
O     -1.532115351709     0.010894471189     0.759569792364
O     -1.817227971648     2.279643035353     0.737546795667
C     -0.172311993717     1.260446432811    -0.812165577732
H      0.778859749384     1.257451948790    -0.268187393235
C     -0.194787143085     2.462503514027    -1.733845936010
H      0.567488223208     2.345401178135    -2.531391587542
H     -1.198291713959     2.581941903957    -2.192461838456
H      0.031458826254     3.381070364933    -1.152998165823
N     -0.176393067413    -0.011734291463    -1.599415366025
C     -1.190814034219    -0.241994372091    -2.555036914221
O     -2.267164206023     0.369209046435    -2.597231563352
C     -0.895588322901    -1.280648348776    -3.561839220719
H      0.057637494986    -1.031699086342    -4.061043756574
H     -0.843184768416    -2.258920966006    -3.061336567760
H     -1.713540941565    -1.292943710089    -4.306502973149
N      0.582707391785    -2.967680808493    -1.025992628708
C      0.249512111676    -4.289477108459    -0.917337651432
C      1.077825919808    -5.255699951148    -1.443548722907
C      2.245477030895    -4.910715456279    -2.085047610576
C      2.553286267686    -3.582953483773    -2.213452592799
C      1.688354825514    -2.597671645406    -1.682194210692
H     -0.673976468998    -4.575049149126    -0.435234046632
H      0.806070855105    -6.294325973430    -1.345744336609
H      2.901287650953    -5.674942842842    -2.494176000070
H      3.438520677493    -3.252931661733    -2.720057739089
O      2.030632991888    -1.376601178509    -1.882882932880
H      0.798853196234    -0.405423436537    -1.820553580323

