# STO-3G

title

0 1
C     -1.056227179357    -2.188326705065    -0.673998872186
C     -2.408601062603    -1.956119758211    -0.287468472750
C     -3.106830002808    -2.940608076225     0.455666863752
C     -2.478503791750    -4.154287294563     0.771217764861
C     -1.130337866868    -4.391106523143     0.388689362862
C     -0.421665622826    -3.414080267895    -0.317081971066
H     -0.581238914085    -1.545150067125    -1.408454160561
H     -2.915018040179    -1.064450019194    -0.646049034362
H     -4.141064138650    -2.766315246846     0.740389802029
H     -3.028599858628    -4.926730499309     1.304370869179
H     -0.657978238403    -5.340147807992     0.631029793242
H      0.604964939714    -3.587432149427    -0.629821660510
C      2.218015941388    -0.834047753758    -1.164489762705
H      3.167613235027    -1.357763105817    -1.075542869852
H      1.763617800416    -0.552744380533    -0.218367317306
C      1.647833878997    -0.515368774893    -2.350378952305
H      0.708035055452     0.022117229150    -2.373208913211
C      2.217022455334    -0.839465913056    -3.669807932272
O      3.300895646005    -1.479165584734    -3.750103077290
O      1.516829211745    -0.441864912807    -4.821293319484
C      2.120421665762    -0.788466002405    -6.075524574590
H      1.478932615023    -0.421297427374    -6.905573632846
H      3.123594743785    -0.315412204808    -6.176053106463
H      2.219750567362    -1.893187774990    -6.175092977398
Pd    -0.616048858681    -0.269960678685     0.666426216866
C     -0.889263292941     1.959158020001    -1.154337022085
O     -1.334559301762     0.698788418562    -0.937220375629
O     -1.156532362753     2.597576282275    -2.186375920501
C     -0.013700763626     2.568408576394    -0.017642169589
H     -0.495995810828     3.515163424149     0.249479039262
C      1.403878565848     2.855246173838    -0.463454234161
H      1.961884076010     3.355219915795     0.355665938080
H      1.926552487060     1.917095328431    -0.731934849799
H      1.394777177055     3.527800644601    -1.347255556836
N      0.039402999016     1.708011837090     1.206684772548
C     -0.788366103524     2.161537552972     2.261642819211
O     -1.710125284611     2.974535110620     2.109099830926
C     -0.489152495774     1.642515863701     3.609814974641
H     -0.738544673501     0.571953449235     3.645721919480
H      0.577082880892     1.821790465608     3.834235020764
H     -1.116204100510     2.184121380551     4.342917803653
N      0.343504784807    -1.218899812505     2.205814739959
C     -0.173778087450    -2.311438158840     2.844285501526
C      0.583156748023    -2.987647582283     3.775509422640
C      1.864212077814    -2.580845558559     4.073392539148
C      2.361292286199    -1.470118107603     3.445162159888
C      1.569893474825    -0.775040133721     2.501600908743
H     -1.185214508408    -2.629866470334     2.635733018834
H      0.165726685402    -3.850335597332     4.268992851609
H      2.462948805701    -3.121097109686     4.802176566963
H      3.344937902756    -1.095884130668     3.648741633823
O      2.089573504831     0.280500331056     1.984967856025
H      0.990031603876     1.291977513263     1.505718870291

