# STO-3G

title

0 1
C      2.353229666057     1.559344349267     2.743245195511
C      2.565569921805     2.109622325014     1.442926059720
C      3.875378572821     2.150227298567     0.889395630327
C      4.955608970029     1.663489723685     1.631325003565
C      4.751579622160     1.133087999698     2.933141674559
C      3.470101998188     1.080285371354     3.484737214681
H      1.381517438555     1.653205235116     3.216063310180
H      1.758427426864     2.641229131764     0.946489949920
H      4.031480846299     2.588583545544    -0.092814869907
H      5.961689044395     1.703669466136     1.220130093583
H      5.600146810425     0.762190516399     3.502772460250
H      3.308709817421     0.657668547173     4.470521694766
C     -0.795565929465    -0.632671902473     3.645071772805
H     -1.598360158942     0.102960507670     3.704650889444
H      0.154931120215    -0.375997152493     4.102061224704
C     -0.918927906653    -1.846690243537     3.049966784057
H     -0.067004080315    -2.508989205966     3.054946800148
C     -2.105727877048    -2.314300907468     2.318109471201
O     -2.911663026536    -1.453760985909     1.861324424752
O     -2.174112210928    -3.660469350353     1.925317332087
C     -3.201623844139    -3.990951288663     0.981124732811
H     -3.152297109804    -5.077243489906     0.752305123121
H     -4.210175487219    -3.765520183940     1.394701561143
H     -3.053372600944    -3.434753111227     0.027229367657
Pd     1.425444603572    -0.042323924353     1.196607021535
C     -0.538597544868    -1.208162563027    -0.615442451196
O      0.496226545642    -1.557878411564     0.163439278724
O     -1.159012552589    -1.982758452327    -1.370605757524
C     -0.919256632434     0.314883618799    -0.545701186207
H     -1.983460675602     0.406417029417    -0.795881127034
C     -0.077362141292     1.105076654547    -1.527794346141
H     -0.303648127087     2.186506381908    -1.478188647928
H      1.000759626493     0.961625521527    -1.307074169071
H     -0.278267644602     0.751702801135    -2.561654875405
N     -0.591353421669     0.799517784968     0.834053365053
C     -1.049019655709     2.041205096309     1.364936179104
O     -0.556783358559     2.521681447138     2.392005620476
C     -2.239819381400     2.681613672047     0.760938231380
H     -2.017266770942     3.007254642196    -0.265355412022
H     -3.074255945571     1.958443983419     0.787270992253
H     -2.509415416288     3.566152448326     1.369522305738
N      2.955762962684    -1.268354147610     1.495954878945
C      3.791023850350    -1.623165426331     0.478067613461
C      4.693820871123    -2.647917959129     0.660131060124
C      4.751996561992    -3.327820381927     1.857115175786
C      3.889883851849    -2.974905585462     2.861823668261
C      2.951125519583    -1.928379146515     2.666626882278
H      3.758593199484    -1.082793673932    -0.460339036817
H      5.356720367472    -2.918525636475    -0.143815168696
H      5.463406997027    -4.136478498881     1.999378878153
H      3.876026597005    -3.479910216079     3.805215891765
O      2.152671821859    -1.671749681123     3.620033493227
H     -0.845547240239     0.092504223576     1.557515964416

