# STO-3G

title

0 1
C     -1.702260744711    -1.564623321195    -0.896810626954
C     -1.626831310222    -2.426349096349     0.223723903942
C     -2.698508797266    -3.280458820371     0.555413037063
C     -3.865091648869    -3.295400281923    -0.233131818916
C     -3.945692329685    -2.452059989902    -1.356279269981
C     -2.872189797022    -1.597851011390    -1.688345655656
H     -1.158309967856     0.051062276928    -3.785909946577
H     -0.729311884288    -2.448482106924     0.840079061107
H     -2.616082642732    -3.931235322790     1.423685492131
H     -4.692747518760    -3.952925640057     0.021292785924
H     -4.840000420093    -2.451206107413    -1.976223494853
H     -2.980438801531    -0.962601622112    -2.565699942033
C      0.300654402185    -2.057226916161    -2.696171760492
H      0.011125771170    -2.954608291095    -2.163888650477
H     -0.318746670267    -1.811019805315    -3.555942394914
C      1.509481192042    -1.404856892403    -2.494726132398
H      1.793296532725    -0.596571677724    -3.148160807063
C      2.495380600489    -1.783434098692    -1.471894181878
O      2.084076326249    -2.325479692591    -0.408207718697
O      3.827479942654    -1.361587420996    -1.613757887173
C      4.668596395702    -1.537495388333    -0.466114564341
H      5.689942653342    -1.167944400398    -0.701170279688
H      4.281572018435    -0.949724539762     0.397218388528
H      4.741038530297    -2.612751586759    -0.186721807513
Pd    -0.074646325923    -0.360003141192    -1.179228823145
C      1.621727665355     1.664490385374     0.077010623831
O      1.626871714101     0.932675458202    -1.036211562829
O      2.527224569619     2.442181421898     0.453282753069
C      0.322854718526     1.485710487459     0.970097323002
H      0.175359997549     2.423221023461     1.520534028468
C      0.477741424329     0.353969492755     1.959089220539
H     -0.475208109135     0.200320833211     2.506534182775
H      0.744967132296    -0.581523455922     1.426956536615
H      1.281561437703     0.594259359902     2.685901584867
N     -0.784002613100     1.129468134622     0.063999960978
C     -1.869367941403     1.794345202802    -0.150029913838
O     -2.694316518082     1.574270432333    -1.182324017756
C     -2.319663778701     2.855534314359     0.765242444512
H     -2.370826949528     2.434992668941     1.784517446482
H     -1.608373877574     3.696202011681     0.704910579604
H     -3.324120687300     3.204228032480     0.459300093773
N      0.709672552257     1.507305705186    -3.841410556844
C      1.718866380045     2.427123881205    -3.736911762313
C      1.421162432192     3.744492180653    -3.422898524652
C      0.114509350466     4.132812111938    -3.203993940391
C     -0.869480703334     3.180054299686    -3.289572602741
C     -0.491590694142     1.859503968098    -3.612825625386
H      2.744937138842     2.124056225874    -3.909089527610
H      2.221890872583     4.460355264654    -3.341522055469
H     -0.126193171907     5.164000994158    -2.961331792785
H     -1.905709716787     3.401473462302    -3.136514651123
O     -1.522300570312     0.945974940537    -3.605553497759
H     -2.286390586222     1.064511560434    -1.936981683961

