# STO-3G

title

0 1
C      1.159859289518    -0.787156937562     0.570677001383
C      0.862239155526    -2.133341478508     0.908491594164
C      1.816684857755    -2.963122566559     1.527686354840
C      3.107183390127    -2.477421319177     1.816728543618
C      3.427062173101    -1.149167190952     1.488059060084
C      2.464045112605    -0.313038708042     0.879007037482
H      2.395404498679    -0.175818360175    -1.287196847606
H     -0.119631134030    -2.542740947162     0.687257252761
H      1.553368207730    -3.989318373284     1.776325050091
H      3.845192033660    -3.121627401532     2.288129056238
H      4.417250847472    -0.754028727656     1.705980870238
H      2.750379578424     0.720089233659     0.685769758822
C      0.675514222080     2.346598353033    -0.050476800752
H      0.078710468646     2.948728929682    -0.730942149305
H      1.693193231906     2.150657792332    -0.367851346410
C      0.197517924592     2.022503255296     1.219746791749
H      0.825494400864     1.488850393423     1.915446403442
C     -1.065066864437     2.535340013818     1.780967210887
O     -1.555867658446     3.613655249820     1.356512150959
O     -1.676463309118     1.806794015426     2.815740635084
C     -2.942040795494     2.311790911828     3.265659635327
H     -3.335873591379     1.659011140720     4.073964199933
H     -2.834798120698     3.342965276045     3.673399092575
H     -3.682456439632     2.322647520759     2.432374064714
Pd    -0.331627416357     0.354671761508    -0.228046899849
C     -3.105031594631     0.671638635824    -0.963047894894
O     -2.009615153375     1.424706234225    -0.865297524688
O     -4.270589850133     1.072357290576    -1.168079375587
C     -2.841692940743    -0.878780646114    -0.769102278270
H     -3.593863166972    -1.401526559438    -1.373482157867
C     -3.004102110308    -1.295167295184     0.675739093176
H     -2.819150367324    -2.384708752579     0.773456561157
H     -2.281093329043    -0.748946825053     1.316162056998
H     -4.034995044849    -1.070874347516     1.021734103996
N     -1.438472656019    -1.159436317033    -1.145706876181
C     -1.028910011201    -1.953539515066    -2.082945645263
O      0.221550385351    -2.024596885261    -2.528654427389
C     -1.945147954021    -2.904798020693    -2.738124010679
H     -2.416942693584    -3.528666834854    -1.959714144516
H     -2.691846418463    -2.333533994496    -3.315083406333
H     -1.373070419441    -3.552944522871    -3.429228339908
N      2.714764168300     1.932190735707    -2.504446603124
C      2.803935570802     3.044208588136    -3.297960479121
C      2.312422618260     3.010667674332    -4.592541285992
C      1.740570681105     1.857551614444    -5.093346690283
C      1.672244548018     0.758377682925    -4.275287392208
C      2.192007041540     0.863542045576    -2.967533368856
H      3.250886199252     3.950677091354    -2.906889543132
H      2.381499572618     3.891565927658    -5.208963032921
H      1.357815420182     1.821330480421    -6.109691177465
H      1.259840055630    -0.174929009618    -4.598992316259
O      2.073915746919    -0.267978198197    -2.218641820060
H      0.882421086362    -1.297127758918    -2.280257299897

