# STO-3G

title

0 1
C     -1.289608138479     2.238157204109    -1.966943437931
C     -1.423778522514     2.507638068418    -3.348290837130
C     -1.261414955065     3.814616976445    -3.853829307108
C     -0.977321189606     4.883017106065    -2.983561740779
C     -0.850489796884     4.630769883031    -1.604324851289
C     -1.001702467738     3.321905774225    -1.102986429677
H     -1.513679656323    -0.473223356993    -3.935295768927
H     -1.650083194920     1.713566793227    -4.059035105957
H     -1.358720687917     3.991471161745    -4.923174595107
H     -0.856608264586     5.891013573817    -3.372641070080
H     -0.631885949198     5.446229899401    -0.917893568471
H     -0.898667181847     3.156398929589    -0.032552504450
C     -3.533530918130    -0.457219200998    -1.462984692902
H     -3.616625759463    -0.961647628339    -0.506517907657
H     -3.350145675983    -1.110851347935    -2.310822984263
C     -3.739585085561     0.906211570912    -1.616959911072
H     -3.765262962031     1.340673482377    -2.603408679461
C     -4.097537351715     1.824197180990    -0.525323672949
O     -3.645072542140     1.590424506414     0.627998528406
O     -4.629981142143     3.080868260971    -0.855969686853
C     -4.756200536353     4.015646094226     0.224289353254
H     -5.197490489465     4.961088712065    -0.158711105978
H     -5.425133817994     3.615573823650     1.019690119281
H     -3.758765605939     4.252225105667     0.659338085169
Pd    -1.479999687008     0.405832840662    -1.078087144019
C     -0.415852443068    -1.480836812660     0.892729949992
O     -1.442111960246    -1.413877825534     0.047871310625
O     -0.143910075263    -2.435947198504     1.655382776547
C      0.515324308882    -0.198980337795     0.883861679544
H      1.505443232550    -0.515600138450     1.234162141923
C     -0.010255082242     0.879191984729     1.803456978325
H      0.631504832499     1.781052711433     1.729438601526
H     -1.049950947608     1.146719208430     1.521557217217
H     -0.006984147665     0.515611544196     2.852313633348
N      0.498936129829     0.346952326767    -0.487584935327
C      1.504102013776     0.489074724537    -1.286731030950
O      1.395042323336     0.730884766276    -2.598315028846
C      2.892427526412     0.433127466568    -0.799950917197
H      3.001726961048     1.161615451053     0.021877686176
H      3.105105213776    -0.596193197735    -0.465759657662
H      3.582323845172     0.699400557411    -1.623031159403
N     -1.459236797133    -2.558883429057    -2.821402353420
C     -1.290367784942    -3.708866979119    -2.097727629703
C     -0.014539659646    -4.208548327548    -1.886007278648
C      1.087600258045    -3.548988153709    -2.392206491203
C      0.884502208374    -2.383724270085    -3.088147948675
C     -0.441669926896    -1.931984431436    -3.257907045219
H     -2.154580390055    -4.230136719071    -1.703395735884
H      0.109073951104    -5.111726552842    -1.312080637007
H      2.089430775314    -3.938704798782    -2.235523178349
H      1.684522808302    -1.818363262546    -3.519681025448
O     -0.563826721765    -0.720274003785    -3.899714176588
H      0.502882478307     0.510372009248    -2.986282922223

