# STO-3G

title

0 1
C      0.075804281929     2.834707888414    -1.131046324176
C      0.782394735602     2.600599585265    -2.326352747106
C      0.676424163218     3.514853535375    -3.395658551650
C     -0.129032960897     4.662742905320    -3.270425663075
C     -0.833857241307     4.892616177512    -2.072675752660
C     -0.731780984213     3.981521569422    -1.000524460391
H     -2.394390408891    -1.932776014423     1.173013715397
H      1.395964535252     1.709676120303    -2.439791839319
H      1.220003707369     3.326509135652    -4.319063767691
H     -0.209000362951     5.367465901110    -4.094630504190
H     -1.463516438655     5.773969094716    -1.969178152187
H     -1.292276655292     4.165478092643    -0.085219001654
C      2.260959037063     1.832760620839     0.713497197225
H      2.585733075967     0.924634321838     1.211282361863
H      2.661264386813     2.034023100574    -0.274265563038
C      1.565014617665     2.821278759866     1.427750923175
H      1.359061224933     3.772047717585     0.960836380200
C      1.313841502488     2.769543249994     2.878442668921
O      0.475543405744     3.568887018152     3.368881607804
O      1.965823787056     1.808353044959     3.666499459396
C      1.568994799663     1.746735387865     5.043679099257
H      2.129407800196     0.931374909845     5.550401048586
H      1.791042835713     2.704637894794     5.565441065461
H      0.483516303755     1.515142017475     5.134779520796
Pd     0.133044792733     1.489150316629     0.343931889734
C     -0.562712813635    -0.371594651209     2.814214576023
O      0.342840426605    -0.031984538696     1.883016424503
O     -0.296397432387    -0.830546958543     3.944297233718
C     -2.041786634040    -0.162705132269     2.315960069253
H     -2.171696384397     0.899894795875     2.077324957222
C     -3.087685698807    -0.571864837495     3.328417533684
H     -4.100528003668    -0.398774290881     2.909504220566
H     -2.973862831685    -1.650850820551     3.561031681899
H     -2.969798556844     0.018533487558     4.260223954637
N     -2.280767660612    -0.929249987082     1.083831704934
C     -2.120233513086    -0.423401074572    -0.143619834746
O     -1.722734687174     0.760862841286    -0.395523615619
C     -2.473485841223    -1.297067138411    -1.273353127683
H     -1.822079567004    -2.187955056056    -1.228205481358
H     -3.532427415930    -1.581522757796    -1.166323369940
H     -2.300284945509    -0.757717521702    -2.221670337143
N      0.652580229482    -1.472598122680    -2.287916960289
C      1.364255651898    -1.166182649023    -3.415699319894
C      2.690484891972    -0.781472362835    -3.313070029252
C      3.315296860208    -0.743701053684    -2.084631812633
C      2.577676790268    -1.054809620945    -0.970538247233
C      1.216193620840    -1.422515698854    -1.136891871682
H      0.882249069044    -1.212464460736    -4.385220632486
H      3.242971172779    -0.548338970359    -4.208730172686
H      4.368468968640    -0.487260606645    -2.003680566719
H      3.024403139812    -1.123155648406     0.000713274400
O      0.546281094658    -1.779362642894    -0.012297293410
H      0.681998296069    -1.183316994885     0.791962657708

