# STO-3G

title

0 1
C      2.061511574670     1.101344516602     0.612849970476
C      2.863610560505     0.349786645294     1.496913636861
C      4.264474425679     0.494544994476     1.469684310637
C      4.873392126990     1.375236809214     0.554104579872
C      4.071283950243     2.113114948895    -0.334448503696
C      2.665516686558     1.983758087080    -0.302913592286
H     -3.511413381517    -2.153506796159     0.567920765589
H      2.408779832910    -0.361816068958     2.180300773411
H      4.874571260376    -0.090088356896     2.155010083317
H      5.955609213443     1.478368432333     0.530779278204
H      4.526956760556     2.795105926026    -1.049043173313
H      2.072058903642     2.584165793557    -0.986056162538
C     -0.568829499932     2.822382297905     0.183125963913
H      0.142850572627     3.251686138871    -0.512727317980
H     -1.525261144543     2.520626958865    -0.230924675048
C     -0.373862398157     2.869176186057     1.571763901569
H     -1.182492737193     2.556804261841     2.217006110075
C      0.747813449971     3.549163247448     2.240394501892
O      0.871418096389     3.426281382386     3.486387531176
O      1.680358105134     4.271749972181     1.476228483505
C      2.864483087882     4.689893624545     2.168824623410
H      3.525811034823     5.241394922939     1.466897942100
H      2.612353427002     5.366591333857     3.016679426751
H      3.428053533795     3.807207107658     2.549815669848
Pd     0.097169571854     0.807373733757     0.795099846796
C     -0.531436180307    -2.053830745195     0.373921349105
O      0.489802012885    -1.246765059314     0.541059971634
O     -0.781018771841    -2.707029601171    -0.689517597911
C     -1.588314238540    -2.102232106277     1.533334452651
H     -1.237232470050    -1.483197755034     2.364397933862
C     -1.857891919553    -3.504972676653     2.028664357453
H     -2.623763923568    -3.473617926992     2.831041414879
H     -2.240478651882    -4.127561035511     1.192922546454
H     -0.926038844985    -3.955368933751     2.427398533817
N     -2.850366384633    -1.538157225303     1.025895271175
C     -2.989001829842    -0.215693422395     0.860750956930
O     -2.107612723626     0.641057641294     1.166850830472
C     -4.266599236607     0.253803367073     0.300687418135
H     -4.252070606007     1.355289913710     0.237413943177
H     -4.361856688228    -0.178226758815    -0.711425171085
H     -5.083425069774    -0.094673574755     0.955359540456
N     -1.811534360471     1.581253110397    -2.711547014772
C     -1.093745718611     2.586133206352    -3.301341264851
C      0.264307144649     2.431637298647    -3.519779800637
C      0.900044199219     1.257781794277    -3.173698870344
C      0.159663272096     0.268787095078    -2.580262163214
C     -1.232843883574     0.482192148662    -2.391896209720
H     -1.589366399995     3.508586860881    -3.580420108142
H      0.819123752596     3.228437141967    -3.987804017897
H      1.964054079745     1.125002438035    -3.354043261295
H      0.612477700353    -0.661358602162    -2.290106534218
O     -1.949144736567    -0.528961755726    -1.837453188846
H     -1.451950720639    -1.366441284916    -1.642516107274

