# STO-3G

title

0 1
C      1.825745116729     3.316910194510    -0.239033415883
C      3.231114147312     3.304357718854    -0.155116548557
C      3.984228059082     4.100335693957    -1.042178407350
C      3.339253450515     4.892626700211    -2.012837815901
C      1.935291151623     4.879607169767    -2.103318946592
C      1.170728324470     4.093859900017    -1.213111939665
H     -0.211373082927    -1.723341356486     0.185915708059
H      3.739001051585     2.658189852818     0.556140355947
H      5.070232685696     4.085129245203    -0.981988590983
H      3.924869239020     5.500199019296    -2.698828807744
H      1.429269404616     5.469246116068    -2.865048925360
H      0.088196231686     4.072781307922    -1.319970315071
C      0.665311749583     3.782636693651     2.414861931467
H      0.743024775072     3.309262963709     3.390582442143
H      1.488148403402     4.418485384662     2.109578455063
C     -0.542862210551     3.777642789691     1.701364799168
H     -0.632272797949     4.362758112820     0.797848446538
C     -1.818564609183     3.286635199139     2.252317022647
O     -2.816760768607     3.222785498560     1.488083543566
O     -1.931203017588     3.031362542268     3.630376396895
C     -3.217006137342     2.590005308320     4.087219336836
H     -3.179479345615     2.427088342370     5.185941759918
H     -3.997865862037     3.355474978715     3.876010179391
H     -3.498878495358     1.627036203668     3.606236560918
Pd     0.797166945038     2.127287623526     0.986357449378
C      2.344926688948    -0.373537153305     0.866705947415
O      1.717801996170     0.498104703852     0.037938181229
O      3.572603881157    -0.392214028705     1.068304135536
C      1.379659484505    -1.357150500630     1.612300740920
H      1.417036713223    -1.073384232355     2.671978917050
C      1.815256205468    -2.799237808928     1.478993983632
H      1.125593260226    -3.449588919466     2.055433196687
H      1.775589358579    -3.096849855146     0.410328005600
H      2.848134370692    -2.929414095374     1.863055460211
N      0.000507020752    -1.266810930884     1.132615603152
C     -0.792103780981    -0.269998041364     1.516726199497
O     -0.434536575192     0.723502292055     2.251925258433
C     -2.183104296992    -0.320504283637     1.029725423114
H     -2.614081850145    -1.284284346446     1.349219834375
H     -2.754255908844     0.521633658825     1.452291324756
H     -2.169944669173    -0.259306310460    -0.072070903451
N     -0.444017199317    -1.986196277707    -1.437098517736
C     -1.078006340715    -3.130202029088    -1.838102372657
C     -1.627927899529    -3.211600035823    -3.103900268105
C     -1.537686014920    -2.147062374285    -3.974630615644
C     -0.890223524948    -1.015007768184    -3.554666371024
C     -0.336373768833    -0.977990915066    -2.254982166440
H     -1.156467954510    -3.967511118877    -1.154669211612
H     -2.127987058882    -4.116134937202    -3.406630377919
H     -1.966563061225    -2.205449818515    -4.971260723435
H     -0.774346618432    -0.155533740761    -4.183020020037
O      0.271551550560     0.162624776335    -1.970754392244
H      0.864981053623     0.226666516756    -1.119341730381

