# STO-3G

title

0 1
C      1.841004057800     3.832309565833     0.450794215542
C      3.209330680387     3.469902668442     0.636572020231
C      4.106422542329     3.481816807506    -0.436416842142
C      3.667683554855     3.856623152422    -1.729558709062
C      2.326350783200     4.200742507880    -1.943094776169
C      1.407321132891     4.181784586103    -0.865174026891
H     -2.381595355831    -0.487378334499     0.789595450024
H      3.549514268871     3.189486471884     1.630727144938
H      5.143124901050     3.197999554221    -0.277353890679
H      4.373894943162     3.871793123102    -2.555664249725
H      1.982473845274     4.492206520020    -2.932139704779
H      0.393200898935     4.541463989884    -1.022408934583
C      0.885456308472     3.981711385306     1.648095011083
H      1.438084416873     3.757906196064     2.565828596122
H      0.517875613360     5.011866692003     1.718790763589
C     -0.265913844915     2.973109019410     1.415582910683
H     -1.116270502108     3.395121785149     0.881278033743
C     -0.711673956363     2.105314485629     2.527770901785
O     -1.942395263898     2.014456028288     2.773875139769
O      0.255295560417     1.591723823002     3.408626295790
C     -0.236658053620     0.752923278405     4.463334756091
H      0.612014079446     0.420627553180     5.098947542715
H     -0.960292313296     1.300859105819     5.108403539242
H     -0.724815166706    -0.156392259685     4.050323923649
Pd     0.727753710633     1.891085259928    -0.008355205557
C      0.055308413662    -0.885476563318     0.690042481987
O      1.294027999673    -1.155430496307     0.548981735309
O     -0.490001938740     0.269613146232     0.372176329891
C     -0.942102778900    -1.915400598101     1.242323756677
H     -0.576355351066    -2.297639837828     2.202004326504
C     -1.136435290325    -3.074890156636     0.290642671287
H     -1.855011746666    -3.796291660251     0.731457799695
H     -1.549623802920    -2.696103054484    -0.666970489149
H     -0.169781764768    -3.586640450988     0.103753503283
N     -2.230569851310    -1.257152683119     1.437661801557
C     -2.884534650279    -1.314072829211     2.628078221499
O     -2.514136041897    -2.004002105223     3.610495952372
C     -4.118334017520    -0.506686143131     2.747302845880
H     -4.936589380476    -1.188485940845     3.029941631665
H     -3.942490492735     0.242270074370     3.536966327937
H     -4.348462023758    -0.002720181934     1.792583927171
N      0.467951853047    -0.854330531368    -2.558273737703
C     -0.166966883102    -1.095240369345    -3.746683282052
C      0.067716749138    -0.271502318498    -4.835065491326
C      0.946221034381     0.787952754841    -4.733605009890
C      1.565566512733     1.003988701483    -3.528941497427
C      1.284370323231     0.127483421259    -2.458687842220
H     -0.856007294107    -1.927620861293    -3.829814471535
H     -0.435917967691    -0.469761278514    -5.766815272782
H      1.144931515177     1.430723862584    -5.586962139961
H      2.280630297648     1.785785130256    -3.381985003762
O      1.942899878446     0.428293502278    -1.302881125623
H      1.832355989193    -0.309561741386    -0.563697198190

