# STO-3G

title

0 1
C      0.181452008754     3.050610642049    -1.149711692670
C      1.392894655884     3.423472045645    -1.798734457521
C      1.462531823310     3.458473422241    -3.196059492928
C      0.326065546886     3.114463985600    -3.975339319493
C     -0.867055035873     2.723416406206    -3.350851980447
C     -0.950733960566     2.696236467115    -1.935191178138
H      0.072904839670     3.199122248216    -0.079759720556
H      2.254576175946     3.713086682292    -1.201898714355
H      2.381122835085     3.770838916720    -3.687499343412
H      0.381461440360     3.167944350277    -5.060348163290
H     -1.742309268212     2.474564552420    -3.945484065517
H     -1.892970459857     2.497993530223    -1.435274273470
C      2.085050894338     2.090698237719     1.863333139910
H      2.490267180599     1.109825262688     2.091689503253
H      2.576200335578     2.620506338668     1.049383336967
C      1.027543200499     2.624141745024     2.514900984901
H      0.637839485125     3.594992443230     2.236658979831
C      0.285755145252     1.945333053967     3.587946788182
O     -0.686016777632     2.542738051283     4.123494450148
O      0.629900356128     0.632831175875     3.952694945372
C     -0.285387487031    -0.038546627012     4.829044593514
H      0.076057398706    -1.074501113201     5.009771419680
H     -0.356922315630     0.486877566859     5.807460188430
H     -1.296867144466    -0.108726899675     4.366925400187
Pd    -0.023410184441     0.767796766034    -0.269214402180
C     -0.677707190941    -1.590699239423     1.651657761714
O      0.213145551333    -0.697927200617     1.125828664794
O     -0.277832489582    -2.524305237616     2.367736433780
C     -2.180458969233    -1.359607678559     1.352386575136
H     -2.681024434275    -2.173018325325     1.887707576878
C     -2.513715242584    -1.496892134634    -0.126034270291
H     -3.615570896052    -1.456702903846    -0.255156600749
H     -2.062605733776    -0.668523943349    -0.702414744284
H     -2.142188802954    -2.467917676636    -0.514820698601
N     -2.742457408127    -0.107917295135     1.862790314982
C     -2.446017894788     1.100203109523     1.544512694662
O     -1.546486264326     1.628565575827     0.678773582474
C     -3.270560419667     2.120575377589     2.209783902970
H     -4.323496056320     1.935577431870     1.939937503198
H     -3.132436468228     2.001143220432     3.298593091580
H     -2.954469283460     3.131995074200     1.898570614166
N      1.621948383128    -0.002844419836    -1.263304635758
C      1.708894097794     0.160872016627    -2.619529761842
C      2.867684049776    -0.176796988324    -3.287057322168
C      3.945433785946    -0.692274605411    -2.602522705238
C      3.825102712160    -0.883188610051    -1.252165412944
C      2.618818948247    -0.544599356634    -0.603337673806
H      0.863013334851     0.545483598748    -3.170405397997
H      2.925451156882    -0.033975480730    -4.353639776808
H      4.861414688640    -0.958468646897    -3.123474341928
H      4.613597352273    -1.310545672408    -0.664536401940
O      2.590086532497    -0.816948331570     0.676612852990
H      1.596600764777    -0.814678810822     1.080142146424

