# STO-3G

title

0 1
C     -0.176845803097     2.836286473286    -1.523412754396
C      0.992277766770     3.396528519968    -2.112215113971
C      1.199369555338     3.300887173030    -3.492796355437
C      0.246498368528     2.639601357113    -4.312919659724
C     -0.898420561215     2.063386222952    -3.743833216905
C     -1.121559189592     2.161977918873    -2.346347027935
H     -0.430650879933     3.068103863057    -0.493509635178
H      1.705672314302     3.927440418826    -1.486518013030
H      2.079888159551     3.753028198865    -3.943484601081
H      0.403041922500     2.593548234508    -5.388317214547
H     -1.635543112691     1.570133694892    -4.372133584963
H     -2.048145230062     1.814580385699    -1.901469696482
C      1.384806294688     2.795295493879     1.655162070186
H      0.588087135758     3.499575756956     1.425437764863
H      2.234370365602     2.774699832371     0.975722299188
C      1.332477969511     1.957221272244     2.715285466072
H      2.133154943009     1.251242360325     2.881196143021
C      0.202294735379     1.853783938521     3.650672690904
O     -0.777154476855     2.642410894719     3.544911742784
O      0.230768871095     0.852073301255     4.634130234489
C     -1.007527184256     0.607621822305     5.314580594818
H     -0.863218702169    -0.208825291263     6.054242073590
H     -1.350145207743     1.516684484120     5.858130789200
H     -1.793563565090     0.281313429909     4.595030405358
Pd     0.025979256440     0.670835805739    -0.401393612036
C     -0.231387897370    -1.519153711721     1.819691467371
O      0.477494597875    -0.543800139465     1.181295150934
O      0.347854658921    -2.310928257902     2.583666760702
C     -1.762639411600    -1.558687896830     1.591751877799
H     -2.106915124907    -2.339582636573     2.277623049628
C     -2.129430392572    -1.984657566032     0.177189414769
H     -3.231056492618    -2.101404277699     0.105826714330
H     -1.807334472412    -1.218580722218    -0.552546799695
H     -1.649542563832    -2.955258936330    -0.067232394248
N     -2.493601182112    -0.337667793285     1.940020238473
C     -2.440740121607     0.815336026849     1.375171176326
O     -1.714223984718     1.284471591430     0.331631462147
C     -3.406206523502     1.794981091689     1.897165236821
H     -4.418386138470     1.380839551853     1.757416495715
H     -3.196490685539     1.930517884804     2.971521597694
H     -3.296192652634     2.757579861529     1.367196997444
N      1.866394828340     0.173738759497    -1.213525533512
C      2.013204687531     0.184776772900    -2.574421111129
C      3.266034016971     0.061213605725    -3.138614481167
C      4.380897340598    -0.086140804289    -2.343848020869
C      4.208337509365    -0.133305978140    -0.986424981284
C      2.910726682424    -0.023781883374    -0.443891865695
H      1.144000716491     0.280141600239    -3.208897053183
H      3.368218861829     0.081451613982    -4.211173684711
H      5.370288243718    -0.182051993656    -2.783349337004
H      5.028869454378    -0.279959898636    -0.312093354071
O      2.846232486137    -0.136648914032     0.858784166434
H      1.850987504185    -0.339625803698     1.197136524149

