# STO-3G

title

0 1
C      0.195342295205     2.732625109769    -0.452015351913
C      1.403019894441     3.216592531670    -1.030757663932
C      1.433803996824     3.606865995416    -2.374080360961
C      0.261427416010     3.512578841107    -3.170883977772
C     -0.928454845038     3.013001976307    -2.622326570663
C     -0.972831623075     2.626747398029    -1.257799989070
H      0.129113776555     2.608209362941     0.624033422355
H      2.291324163491     3.308372765817    -0.410493797115
H      2.350435935739     4.003088591691    -2.805074054742
H      0.288174795664     3.840784199123    -4.207590938157
H     -1.829442130042     2.952726446644    -3.227414954861
H     -1.908467027517     2.339481582866    -0.789359859626
C      2.166906847831     1.128598784732     2.137775684467
H      2.639290763308     2.090827778859     1.946532909316
H      2.625246196970     0.267346294529     1.661040204063
C      1.074059957025     0.986514466420     2.922794340915
H      0.629146278779     0.010088557180     3.057737245210
C      0.385012889084     2.094920755633     3.601018674946
O     -0.588280477977     1.838357867427     4.358422532499
O      0.782189430411     3.421810356976     3.346417010051
C      0.015434521567     4.441674103982     4.001490541210
H      0.419844324232     5.439792472715     3.727557755328
H     -1.051093098963     4.399345878399     3.683696469094
H      0.076573426672     4.333069215164     5.108267995260
Pd    -0.055573109601     0.320792323482    -0.201587218688
C     -0.714642827813    -2.478136210154     0.926708736237
O      0.184169540169    -1.455391045336     0.783934310523
O     -0.319912450343    -3.621795798947     1.206620438403
C     -2.216423616941    -2.124101176366     0.772785579781
H     -2.732000475232    -3.048339811210     1.054364058009
C     -2.594507794256    -1.799926098324    -0.665478387723
H     -3.697989846621    -1.701201008106    -0.736537653218
H     -2.137351536287    -0.843948896265    -0.979754316118
H     -2.263491640301    -2.614411999549    -1.343190010529
N     -2.715506245231    -1.070477983636     1.654053812944
C     -2.386884087201     0.168539881984     1.719529690023
O     -1.502366479736     0.925287961824     1.021911860589
C     -3.152575247368     0.945477008457     2.706024754431
H     -4.223560351261     0.844389110111     2.463711997424
H     -2.943761418130     0.512352845977     3.699882752992
H     -2.842179199635     2.005097847485     2.685240645331
N      1.516987329595    -0.218187792493    -1.441535021409
C      1.553482650891     0.274711089812    -2.718085369095
C      2.668304386283     0.078934639785    -3.506502630857
C      3.752591655401    -0.620285664944    -3.025391466139
C      3.682220883106    -1.135145308514    -1.758713165207
C      2.518967717952    -0.932910982616    -0.986811114328
H      0.701156801958     0.807529972294    -3.113838451885
H      2.686814521589     0.479549401054    -4.506739582791
H      4.634309198266    -0.775355086338    -3.641687228585
H      4.477634314560    -1.715978655089    -1.334889316462
O      2.533956154999    -1.508708036872     0.190420734923
H      1.555584906533    -1.591824764086     0.620604877554

