# STO-3G

title

0 1
C     -0.000552459367     2.032987949719    -1.100894247392
C      0.577366179713     3.157328392842    -0.438853546176
C      0.494469588341     4.462048737259    -0.981911963199
C     -0.170276347534     4.678452323044    -2.198366688159
C     -0.751079781681     3.581553662686    -2.871186774983
C     -0.664582765003     2.284745672640    -2.332623559080
H     -0.887950585807     2.382875873482     0.730107670023
H      1.090690672117     3.040885873216     0.519119823158
H      0.949163590032     5.293447541672    -0.447477823990
H     -0.237041535294     5.678690249755    -2.618751349407
H     -1.268600150765     3.738787122880    -3.815539530311
H     -1.116784999233     1.458333528779    -2.875972989365
C      2.265371086420     0.609302567853     1.853546855540
H      2.795565930589     1.553817800727     1.743630121950
H      2.615854538545    -0.212119737968     1.235351989260
C      1.224604159551     0.429024605495     2.698048332219
H      0.740539157303    -0.536184591136     2.745280061601
C      0.643455916100     1.477735628760     3.549620689972
O     -0.333753521279     1.184277014758     4.290866818312
O      1.142302222027     2.791989518003     3.475604253218
C      0.355072341747     3.792381489529     4.135411311272
H      0.835495392950     4.785255240240     4.004107533715
H     -0.666543421569     3.840770845903     3.692154949396
H      0.278308595901     3.582414315311     5.226238574943
Pd     0.100802266479     0.092374986891    -0.443727477805
C     -0.857213405000    -2.338526331007     0.845534528489
O     -0.956009491714    -3.439905305964     1.426108576423
O      0.209776003481    -1.894775675153     0.190335950821
C     -2.080506309396    -1.350425027049     0.832576813695
H     -2.683323324319    -1.592260360826     1.717045255366
C     -2.929585957531    -1.538316203310    -0.405773220270
H     -3.799160255809    -0.850144105881    -0.371260098670
H     -2.330665917909    -1.311185793712    -1.310797024151
H     -3.297751112166    -2.584427322586    -0.460261195811
N     -1.583211642147     0.046653681139     0.800724279742
C     -2.040237226016     1.017509308712     1.521295263212
O     -1.553272487545     2.263957818998     1.459395769131
C     -3.122634316580     0.842546468574     2.505533732462
H     -4.015405416847     0.453152119116     1.990177557719
H     -2.761105682872     0.161267495647     3.295276405900
H     -3.355708577597     1.821552230743     2.964356567832
N      1.729554143826    -0.350087795372    -1.654579754688
C      1.622362246312    -1.562357877459    -2.289626567557
C      2.706487001369    -2.087272458026    -2.964741700416
C      3.905561637830    -1.410391354667    -2.996347207970
C      3.983428162221    -0.202114035359    -2.355292207412
C      2.848095782624     0.299870360728    -1.690087552665
H      0.681529664598    -2.100009161703    -2.283386240484
H      2.612195037750    -3.041095947757    -3.457991040943
H      4.765388638042    -1.822517192765    -3.518022976976
H      4.884339931773     0.378647155911    -2.342929890762
O      3.044230465327     1.475903707037    -1.100540248792
H      2.204960092840     1.865539711541    -0.751684737637

