# STO-3G

title

0 1
C     -0.216881006585     1.744993829729    -1.394170876604
C      0.764752105136     2.767305582619    -1.329641004389
C      0.587777102069     3.985676908721    -2.021508514404
C     -0.567291240575     4.198722174617    -2.795788087576
C     -1.550429343292     3.190610514056    -2.868942705121
C     -1.379417854731     1.977865943852    -2.172819691144
H     -0.663903890813     2.283061712868     0.542208812926
H      1.670797815924     2.615942316954    -0.745213974894
H      1.349363186783     4.760203756236    -1.951288311794
H     -0.703950481373     5.136301712722    -3.329853441327
H     -2.448862938041     3.349860149226    -3.462385295914
H     -2.153598991077     1.215270317504    -2.234002981522
C      2.241845174549     1.090804840167     1.836966747873
H      2.652958202083     2.088244128980     1.697741819146
H      2.663735504772     0.300414866793     1.223946037740
C      1.257593089561     0.815791927612     2.722323466658
H      0.873691611600    -0.193487598464     2.798647659666
C      0.617351197310     1.809030241080     3.598311926787
O     -0.339908723526     1.440091719124     4.332575667952
O      1.094407276645     3.133032128917     3.626469520538
C      0.299815667024     4.064909329465     4.371777338574
H      0.764143592373     5.072411898916     4.313474901714
H     -0.727246615837     4.131271049773     3.945133473870
H      0.240975127835     3.768398360159     5.443436295029
Pd     0.061949019510    -0.042398641568    -0.501608663395
C     -0.752789314812    -2.218119319299     1.340057798512
O     -0.756225456991    -3.108656635534     2.205284967004
O      0.281839841171    -1.878537989449     0.564642379066
C     -2.019748939531    -1.332508927279     1.059991524542
H     -2.673778036152    -1.440800575291     1.933947232868
C     -2.767402885736    -1.786761332179    -0.173039574137
H     -3.655080892549    -1.139106198508    -0.327930814906
H     -2.111463465810    -1.713686617452    -1.063940370249
H     -3.102631545728    -2.837895398925    -0.049084779749
N     -1.561049013033     0.050108005418     0.801616986540
C     -1.925676577447     1.108673799549     1.448071958118
O     -1.353529392825     2.304646095992     1.261075423323
C     -2.994609176882     1.094946842226     2.460359305806
H     -3.916633565538     0.708846889323     1.996280343089
H     -2.659734275423     0.473153792536     3.308689474672
H     -3.161275608090     2.126495982029     2.822637778865
N      1.785894239504    -0.419401172671    -1.631918428592
C      1.976717540732     0.139304104703    -2.871619106354
C      3.182188979086    -0.011325305609    -3.524964056429
C      4.206429658237    -0.727828728472    -2.951165019744
C      3.987212962006    -1.304731080616    -1.730225662692
C      2.736342849490    -1.147894985855    -1.095989201060
H      1.182892507799     0.697141009950    -3.351942493324
H      3.319252916192     0.441921250598    -4.493385267987
H      5.159309600672    -0.844966971750    -3.460739814373
H      4.735559076042    -1.895912860355    -1.239882052887
O      2.643810156382    -1.780978319794     0.052068517015
H      1.668526986665    -1.928489801498     0.434134902968

