# STO-3G

title

0 1
C      2.508601119911     1.128283774674     1.405328404354
C      3.456232519714     0.960712189429     2.454650782416
C      4.343748320664     1.994085579616     2.818962112268
C      4.319570756355     3.224442601314     2.134299454976
C      3.402484453512     3.412987168575     1.082244410056
C      2.509258126586     2.381604652331     0.727126645361
H      0.959428206539     1.516325539183     2.699338413586
H      3.520413934545     0.007427681009     2.974565614853
H      5.055329476699     1.833098127715     3.626163620527
H      5.007258393556     4.019575052360     2.411617582494
H      3.379751554865     4.356506818439     0.541198589370
H      1.800519463038     2.555436063536    -0.080036986148
C      1.042586906541    -1.302051497993     4.037491781656
H      1.615914668118    -2.226421468996     4.049356969424
H      1.586785842847    -0.398844193105     4.303410490306
C     -0.265888191998    -1.243450340592     3.701544669672
H     -0.767031222515    -0.285829202741     3.693429188919
C     -1.097319345563    -2.384925071158     3.293342394125
O     -0.630609627561    -3.556286032698     3.339711713308
O     -2.419032418734    -2.135245880732     2.885217301365
C     -3.112340952217    -3.251292776575     2.309389697209
H     -4.126784611776    -2.930764922801     1.989564176624
H     -2.575670610496    -3.625880487494     1.406959029313
H     -3.218988529841    -4.077625957177     3.047631123139
Pd     1.173512983422    -0.336188075886     0.853599663451
C     -1.397378781289    -1.170080387686    -0.212728516039
O     -2.402319878608    -1.782759898706    -0.630584671734
O     -0.276543990009    -1.720048578169     0.242957579361
C     -1.403136476452     0.411195139862    -0.189358019991
H     -2.448215510359     0.724785533272    -0.071568631715
C     -0.857018329198     0.991331139167    -1.474235223377
H     -0.869933594581     2.099412085788    -1.418880766292
H      0.186091360235     0.649599369165    -1.630726299258
H     -1.480453305532     0.663516314309    -2.332564682151
N     -0.506778376518     0.857803795518     0.897379572322
C     -0.786185942860     1.670955326988     1.858456276863
O      0.068503283284     1.932573795616     2.862023486866
C     -2.088388485559     2.346969614257     1.968602348087
H     -2.252591858999     2.941038876491     1.054267140331
H     -2.867262151617     1.577570307268     2.106016047160
H     -2.075462493953     3.016466540830     2.849176376888
N      2.593167587900    -1.828141243664     0.692149636375
C      2.188552018850    -3.083150199331     1.073754198987
C      3.005272239642    -4.171089318503     0.836321809869
C      4.217484563141    -4.013473526822     0.201745749610
C      4.590278064734    -2.750539519643    -0.178600566004
C      3.729367657786    -1.669215102399     0.089941283857
H      1.243694632521    -3.222739119634     1.579981447774
H      2.677950541865    -5.150714699258     1.146259937621
H      4.859622099168    -4.868317211255     0.006747386890
H      5.516740314911    -2.556734401556    -0.681266775179
O      4.178675038356    -0.492687033357    -0.331841459718
H      3.587551414074     0.247385391290    -0.022222445210

