# STO-3G

title

0 1
C     -0.336601171172     1.894148314092    -1.729493376751
C     -0.818395606188     3.170165404944    -1.336089579576
C     -1.222922232970     4.126052040345    -2.293401170204
C     -1.169593957771     3.830211175603    -3.666704394423
C     -0.699924146602     2.568092592954    -4.079347792694
C     -0.284049420930     1.619853386920    -3.125708313574
H      0.215520742411     2.136230768825     1.253957395682
H     -0.897038582002     3.441056903674    -0.288046429850
H     -1.580799971558     5.097432075514    -1.957694802857
H     -1.485356591926     4.567243373197    -4.401307197535
H     -0.650948115334     2.323105139596    -5.138527845260
H      0.083764957282     0.657881730169    -3.475130699431
C      2.520156230013     1.069305499164     1.835217251049
H      3.043396386139     1.966966073441     2.155968602555
H      2.820019446258     0.661623189194     0.875042458613
C      1.548583458147     0.462350063644     2.558919445205
H      1.052026355974    -0.412236807736     2.158757509503
C      1.059896470586     0.938308553200     3.863305287767
O      0.033005158784     0.399391308978     4.360430728169
O      1.726132073336     1.988695557917     4.523438629893
C      1.136988884491     2.427618960636     5.754824120053
H      1.745642445341     3.254858251018     6.178700731492
H      0.104604541938     2.807986228300     5.583060038917
H      1.109434651632     1.598574943186     6.497786139450
Pd    -0.009917003246     0.272496760634    -0.517524859727
C     -1.327051305917    -1.878397337836     0.905024759956
O     -1.716054398954    -2.976424624183     1.349000938937
O     -0.092330609195    -1.590477091370     0.490414397071
C     -2.357467135815    -0.670336423376     0.797146026782
H     -3.054152408969    -0.762496287685     1.640252496521
C     -3.136742918158    -0.702827251546    -0.496732836721
H     -3.843392155672     0.152313017252    -0.524494801158
H     -2.447191255417    -0.620868541988    -1.360769600345
H     -3.709536985456    -1.650887911952    -0.570862870749
N     -1.562098610235     0.569361587072     0.792225911937
C     -1.577734267748     1.514408061811     1.666196840100
O     -0.592553377494     2.434553576355     1.749902722118
C     -2.656713424434     1.665034947171     2.652477619711
H     -3.619656152135     1.698793242253     2.116418797291
H     -2.600661004695     0.813265141712     3.352667328817
H     -2.502210726740     2.603967060321     3.215231085155
N      1.696255955313    -0.309157571894    -1.523976381086
C      1.855724734604    -1.647380047101    -1.781767146753
C      3.062303837976    -2.113861735265    -2.264856870253
C      4.114621991211    -1.249784671578    -2.478224776705
C      3.926405901738     0.080866613750    -2.207992798389
C      2.677669028907     0.514686378554    -1.725753329457
H      1.032995263697    -2.335959410548    -1.631634895914
H      3.179627208570    -3.166840184649    -2.465075515284
H      5.068521203577    -1.614380614992    -2.850491169481
H      4.703138937754     0.806588650398    -2.348118736618
O      2.606344357578     1.817351492977    -1.471742192340
H      1.669040217244     2.082118430045    -1.246599116735

