# STO-3G

title

0 1
C     -0.262007091941     1.710775601801    -1.461129445802
C      0.724522744892     2.729724868953    -1.495041749578
C      0.504260184452     3.927378439639    -2.210409967609
C     -0.699530126166     4.121909294191    -2.911805636071
C     -1.687142084112     3.115783277476    -2.889170636472
C     -1.472801141147     1.924165969683    -2.169065457100
H     -0.571881782178     2.330313341842     0.442892667996
H      1.667303339840     2.594090266542    -0.967655714158
H      1.270284533791     4.700769539732    -2.213615271703
H     -0.869745958503     5.044186693328    -3.462612472857
H     -2.622847184225     3.260955960823    -3.425827210622
H     -2.251073770405     1.163530185880    -2.156275458837
C      1.803949671104     0.655501636062     2.024522348590
H      1.138141421298     0.054010659027     2.639721031374
H      2.395917842288     0.101060934985     1.303181604817
C      1.921904256635     1.997775542461     2.144847714971
H      2.604760749254     2.536729171868     1.500277209802
C      1.188308923503     2.824350965217     3.116255869986
O      1.474752011642     4.048744120537     3.204501826522
O      0.307307201768     2.213075437241     4.032394126536
C     -0.337230560003     3.098502326034     4.958350100169
H     -1.008928903778     2.514140870673     5.622263153520
H      0.414103932922     3.618630315917     5.595086597757
H     -0.948995398854     3.855726483730     4.416776219920
Pd     0.065584805438    -0.057292602816    -0.545802344682
C     -0.578706112242    -2.145990033768     1.452589396309
O     -0.475938892320    -2.962734560801     2.382652147522
O      0.346934121052    -1.891339382245     0.521481963239
C     -1.860356006949    -1.258651066165     1.272592989416
H     -2.416027535946    -1.323246690388     2.216030309247
C     -2.742393701193    -1.753019723279     0.148669040162
H     -3.636948565169    -1.101615877785     0.065274927435
H     -2.188008389404    -1.722664153013    -0.811191291793
H     -3.069550683171    -2.794484931180     0.350845587124
N     -1.421690460687     0.106353474846     0.906970540115
C     -1.701779168461     1.194176390447     1.548956270565
O     -1.173864745540     2.381534685690     1.235688695240
C     -2.623633206481     1.223513094001     2.697188554259
H     -3.596982300777     0.815750845314     2.378524459323
H     -2.169712394673     0.640482619198     3.516328569120
H     -2.751656255264     2.270819241965     3.028275911413
N      1.700360487089    -0.468377135175    -1.789291649116
C      1.807861140810     0.063585567533    -3.050573137353
C      2.970763484322    -0.093429069102    -3.775551667619
C      4.035459897201    -0.789014384201    -3.251891832596
C      3.898374001087    -1.341174846239    -2.007707379050
C      2.689063742993    -1.178562333537    -1.298646514885
H      0.980458044294     0.604666294485    -3.491924806245
H      3.042865581529     0.339847304369    -4.759981068761
H      4.955485853391    -0.909949666256    -3.817799612424
H      4.681374452753    -1.915570077363    -1.553047225074
O      2.671757760299    -1.790809970083    -0.136317224379
H      1.718919978968    -1.937269822327     0.306436512481

