# STO-3G

title

0 1
C      0.413012824667     3.527641414803     1.183971058952
C      1.623720618722     4.263792361152     1.092270775367
C      1.646072614401     5.546459490237     0.517016288365
C      0.465616067687     6.135588900775     0.024000024936
C     -0.747027530907     5.426882930486     0.123604466293
C     -0.772603966062     4.146302794356     0.698200111172
H     -1.954153177463    -1.233105621970    -0.665969553475
H      2.560875291267     3.869643151364     1.471453013496
H      2.586970343686     6.089899123538     0.461083606780
H      0.490185748971     7.129810186264    -0.416209206682
H     -1.671405264445     5.872831517936    -0.236742312452
H     -1.713240865288     3.605140757710     0.777132562917
C      0.244072671866     2.173871539879     1.777983239816
H     -0.806718906978     1.939848826079     1.945451849246
H     -0.086408417839    -0.698891921940     1.205846818158
C      1.139386047536     1.260687220757     2.376868253567
H      0.726441112088     0.493412948930     3.016108717009
C      2.602071454746     1.348438197088     2.398246589133
O      3.168620071595     1.452552830360     1.276410373359
O      3.279223005538     0.781871859846     3.488535009350
C      4.708466440294     0.720847416275     3.379186111663
H      5.128571110353     0.276959418716     4.307996680140
H      5.014764601629     0.077732227968     2.522919187225
H      5.141616997464     1.739119035830     3.254872969801
Pd     0.900231448064     0.741648939897     0.225069516018
C     -1.480941669197    -2.138267778481     1.876337494565
O     -0.216987392811    -1.695281407467     1.484290316597
O     -1.601969427066    -3.141065529942     2.580208007884
C     -2.663865395529    -1.286556234756     1.335312867429
H     -2.874022485685    -0.488742102977     2.060725720397
C     -3.919924502976    -2.105395034222     1.139161484508
H     -4.739186695166    -1.448634809441     0.780022147423
H     -3.732232394572    -2.892387355676     0.380285985513
H     -4.226853906135    -2.577463703983     2.095645091114
N     -2.332257245264    -0.643179773648     0.067326910521
C     -2.408021261712     0.707525685856    -0.085233957875
O     -2.762592923370     1.495193041696     0.825543596508
C     -2.066116417228     1.259470860209    -1.413086686005
H     -2.967990992617     1.768975182432    -1.793293311249
H     -1.253282812207     1.991864849061    -1.283907781074
H     -1.767088358035     0.460339184529    -2.114412552082
N      1.148926096617    -0.161470133688    -1.662886639988
C      1.720025297535     0.648397847353    -2.610794063067
C      1.859710144041     0.201014430719    -3.908054421683
C      1.438398042367    -1.062786180690    -4.261167402162
C      0.886494367448    -1.855004814686    -3.289252696409
C      0.770472555204    -1.358934149973    -1.975170373800
H      2.047095040984     1.646663314288    -2.341895306229
H      2.303145914729     0.846963668780    -4.649067474786
H      1.543934686399    -1.422346513020    -5.281570137744
H      0.541703757447    -2.850330479375    -3.492503458361
O      0.220163716067    -2.230123148207    -1.125995465513
H      0.260880370235    -2.014622231472    -0.147423706103

