# STO-3G

title

0 1
C      1.972218149387     2.344113553958     1.538365369742
C      3.033018269192     2.186123474111     2.465360398249
C      4.242183559033     2.885744351901     2.312259908683
C      4.424737908494     3.750365373765     1.215407065455
C      3.389968017375     3.896374004174     0.272428308301
C      2.179877587673     3.196366294558     0.428982577791
H     -1.115575337279    -2.251066234751    -0.031211547260
H      2.903603057489     1.517999466725     3.315034762704
H      5.039507715995     2.751813278686     3.039875203163
H      5.362246001022     4.286827709662     1.089584832987
H      3.528555244642     4.540284789643    -0.593116726189
H      1.405722221275     3.281691055495    -0.330783784348
C      0.715879288684     1.578833240315     1.800860970167
H      0.898969362352     0.589628771433     2.225691216261
H      0.710809086189    -0.292594300206     0.229409492074
C     -0.593402571921     2.051962178767     2.038569682106
H     -1.242327699822     1.396888309962     2.602060306748
C     -1.033596531938     3.450562238938     1.933160258331
O     -2.065781147910     3.780358375106     2.571565415382
O     -0.702600892232     4.129839943229     0.749379644756
C     -1.141441544711     5.493757474465     0.674474788646
H     -0.795188537879     5.941175616695    -0.282334038694
H     -2.253016489386     5.559550545229     0.706590257356
H     -0.710955520711     6.093357142495     1.508983761778
Pd    -0.550690058393     1.286349483460    -0.008330974631
C      1.669679280263    -2.157122678947     0.258548496432
O      1.477607654391    -0.849826939669    -0.175163546241
O      2.649801793154    -2.802240906443    -0.113269333541
C      0.562394864689    -2.672914376471     1.218287786058
H      0.815945467813    -2.341950979496     2.235016102181
C      0.448359388027    -4.180686887646     1.211517477198
H     -0.335432449146    -4.497935259009     1.930133944719
H      0.166983330092    -4.526002893730     0.195883885088
H      1.415193203825    -4.641115293949     1.503764481843
N     -0.746969824877    -2.110287823973     0.901751125595
C     -1.428460297133    -1.329906115520     1.790172511307
O     -0.987471234214    -0.983744418979     2.909540661634
C     -2.781137127237    -0.917914522206     1.365244605867
H     -3.226191338225    -0.283358878695     2.153190443750
H     -2.707803998496    -0.382177978825     0.407130196082
H     -3.383323780453    -1.835876324367     1.240551762894
N     -0.989909904565     0.843370316540    -2.033021433004
C     -2.201179492690     1.335157344952    -2.448542161130
C     -2.511662780318     1.378598194573    -3.790504305943
C     -1.613206983234     0.925095334907    -4.730562151698
C     -0.413422095609     0.433585706988    -4.292004827601
C     -0.134959331041     0.402719546134    -2.909607656922
H     -2.914947586143     1.697252553596    -1.717461270046
H     -3.466056063315     1.769370015275    -4.105860214586
H     -1.850454551661     0.954478869765    -5.791033651195
H      0.329340605961     0.058884623284    -4.969887622554
O      1.057111926418    -0.106944371407    -2.634785276785
H      1.310917980074    -0.287692678332    -1.675955917492

