# STO-3G

title

0 1
C      0.376148575318     4.245209259338    -0.003801028378
C      1.200668971816     5.265386771004    -0.539757104498
C      0.724580410598     6.134318203696    -1.535573877180
C     -0.590970054102     5.997820726062    -2.018133874707
C     -1.421655242114     4.985338708692    -1.495714445833
C     -0.945935343265     4.118484528252    -0.500557085050
H     -0.583849681279     1.031491031967    -0.696058371972
H      2.219617385574     5.374517270435    -0.170561292815
H      1.373348369461     6.911530665674    -1.932440009776
H     -0.963401122926     6.665406627774    -2.791298599937
H     -2.434590425902     4.866156418724    -1.871660386182
H     -1.607748060794     3.341583367698    -0.126693926720
C      0.941731055785     3.365771812034     1.045531108888
H     -0.582226754399    -0.386330953394     1.592781525986
H      1.950785749139     3.633012504061     1.365173933252
C      0.225558867374     2.420218562064     1.799423368070
H     -0.838223986699     2.310726147319     1.665718860968
C      0.794594312837     1.750142040836     2.971552823966
O      1.975452464375     1.323384022968     2.850956075448
O     -0.078771465314     1.200771635459     3.921074604470
C      0.518153536768     0.354969397191     4.914385621367
H     -0.268178458157     0.001984375868     5.616939843166
H      0.984802840816    -0.541205713568     4.445322684199
H      1.283613544043     0.909977382908     5.503044191310
Pd     1.413767444237     1.426058444450     0.153566917627
C     -1.260528067041    -0.635563287243    -1.568332541426
O     -1.575841607893    -1.178432896631    -2.628283822886
O     -1.070987418465     0.733966936400    -1.519930589070
C     -0.920742821213    -1.388265344217    -0.245514704973
H      0.173570448575    -1.450756261937    -0.211330811561
C     -1.478702299909    -2.796524599489    -0.215634322754
H     -1.236047719414    -3.278417530620     0.753491687464
H     -2.581035650060    -2.767836432316    -0.343815525267
H     -1.041300645263    -3.396094322547    -1.040792213103
N     -1.327341006050    -0.673100356730     0.968103220001
C     -2.633047026472    -0.388162818346     1.254495669918
O     -3.577808088300    -0.547626530371     0.452924184150
C     -2.909493179007     0.084222841272     2.627962065402
H     -2.443360686884     1.068129681180     2.769000995763
H     -4.004028976308     0.166240289649     2.750762220674
H     -2.498944035937    -0.653869423465     3.338013155119
N      2.149509299734    -0.016182227301    -1.196097386068
C      1.898804153759    -0.011581629177    -2.544812756724
C      2.393019392241    -1.031276608774    -3.332811245855
C      3.133352733384    -2.055329027857    -2.779614239689
C      3.372174090017    -2.027607639628    -1.428453965421
C      2.849608214964    -0.968646905369    -0.666329440788
H      1.308847535094     0.784226937032    -2.986226232880
H      2.172848139765    -1.033871711404    -4.389199366804
H      3.512985061686    -2.864857991122    -3.397901770396
H      3.934453748209    -2.794277538912    -0.932395673998
O      3.098884062721    -1.033104280578     0.643675148495
H      2.693860349182    -0.221583806779     1.091784743525

