# STO-3G

title

0 1
C      0.266707614458    -0.998162789232     1.440462922828
C      0.888869995830    -2.261919994341     1.467889563456
C      1.202891708346    -2.870959378141     2.699614163733
C      0.898881195953    -2.215127959883     3.908650546324
C      0.275405527984    -0.950959461198     3.883613834624
C     -0.042367574029    -0.346735833763     2.651803935112
H      0.006309533251    -0.533150610661     0.493460164243
H      1.121709284668    -2.777424774178     0.538613033549
H      1.682467903506    -3.847447619957     2.715393758281
H      1.146130195811    -2.683445591724     4.859077598516
H      0.038258782730    -0.444385673114     4.817112288840
H     -0.543097933648     0.617789877240     2.625314950796
C     -0.280632768845    -1.663056706149    -2.209350641073
H     -1.003178606146    -1.769436435693    -3.014506219503
H     -0.688751875829    -1.810442278918    -1.213066617051
C      1.110920176050    -1.699115735409    -2.428254072264
H      1.775342535543    -1.842077799022    -1.588097476553
C      1.725545468994    -1.892312256412    -3.752944933906
O      1.069435941663    -1.573263398632    -4.778616863744
O      3.061918060097    -2.311296934793    -3.826312063612
C      3.670219108067    -2.231812276390    -5.123039481370
H      4.723873667961    -2.578795895754    -5.057623858781
H      3.134318041252    -2.876382990814    -5.856040173298
H      3.678896795982    -1.178822443091    -5.489012792082
Pd     0.324387417559     0.405897356869    -2.205234592920
C      2.084303642595     1.322718775929    -2.951487095017
O      1.535235965117     2.310260432687    -2.375562363716
O      3.039610553342     0.907465184259    -3.584600248196
C      0.147134453651     3.182001370964     0.484266924519
H      0.307558218293     3.957746116468    -0.269078361923
C      1.054299807191     3.110487080092     1.671937678709
H      0.497164242627     3.425041651808     2.576714476678
H      1.404704007996     2.067112116178     1.795399273672
H      1.927147159182     3.774774689224     1.516296176012
N     -0.783017616791     2.311213183483     0.482892077948
C     -1.790188807993     1.886873372550    -0.293296735984
O     -1.658859277787     1.178464881011    -1.332065852266
C     -3.134858984544     2.157249437086     0.234548366140
H     -3.214226835044     1.637316336402     1.205379782934
H     -3.231487947135     3.246783702650     0.371570695375
H     -3.897917208734     1.778033094992    -0.467121385914
N     -2.863318935939    -1.216676716869     0.409693808975
C     -2.951345801461    -2.029294420491     1.508382824609
C     -3.515257906026    -3.287792528671     1.392002356698
C     -3.998640169327    -3.730195289423     0.177678073565
C     -3.895684270086    -2.895263451465    -0.905461673529
C     -3.308175137564    -1.624934907578    -0.728115953408
H     -2.580916358027    -1.685206207018     2.466578001229
H     -3.577572990111    -3.920205778061     2.262210549445
H     -4.446991839010    -4.715519266136     0.082028954663
H     -4.249927633428    -3.169733363423    -1.878773659731
O     -3.230644116618    -0.896754181619    -1.858232710698
H     -2.702203724884    -0.058485003163    -1.724798897348

