# STO-3G

title

0 1
C      2.725782734822     1.166486126620     1.928320971975
C      2.839321312376     2.444066714183     1.326024079803
C      3.594659678882     3.464424677221     1.943868814701
C      4.248180668947     3.222725197399     3.167039875269
C      4.145645715451     1.952994766006     3.769056447310
C      3.394399135996     0.930705214007     3.153907217957
H      0.242133328754     1.905049635557     1.841251763666
H      2.360696936289     2.645542481628     0.368885615867
H      3.675851066622     4.438997980278     1.465816609138
H      4.830994324663     4.008614038865     3.641983483484
H      4.648249388754     1.756144610296     4.714388628937
H      3.336729156802    -0.046052984629     3.631171679099
C      0.320602909070    -1.345325038352     3.721064586527
H      0.707753636572    -2.335538166994     3.490423208181
H      1.022078857940    -0.640233131258     4.157065390246
C     -0.954413964339    -0.984553186857     3.450485720644
H     -1.286090275861     0.026523719090     3.649865538662
C     -1.957659478179    -1.856699439708     2.819109227354
O     -1.726908808073    -3.086408091473     2.672311808547
O     -3.192326657240    -1.295243376990     2.450539542423
C     -4.030247238717    -2.127025670644     1.635940531247
H     -4.963349704253    -1.579116296750     1.385189802968
H     -3.516261571979    -2.387917549001     0.681660228172
H     -4.306228025816    -3.062290328559     2.173965545915
Pd     1.559725865901    -0.215678170554     1.079041664138
C     -0.616544038777    -1.728894183193    -0.739526221213
O      0.126733048365    -1.670179895230     0.375064386437
O     -0.944745866680    -2.780043004577    -1.321070711083
C     -1.113275023672    -0.350473580373    -1.293756813956
H     -1.881564036545    -0.610626029994    -2.027134948250
C     -0.012192490663     0.417124832235    -2.005400678804
H     -0.440164783511     1.336340981979    -2.456774482364
H      0.777082975099     0.708330607778    -1.287642188132
H      0.429067844406    -0.206996239424    -2.810186663582
N     -1.736603076563     0.511110312551    -0.298411481066
C     -1.336009041592     1.164038003684     0.692221737561
O      0.011893385991     1.231293994750     1.170183672816
C     -2.334091072504     1.954821119128     1.430033208850
H     -2.761602657354     2.689197031724     0.726469661366
H     -3.124024066806     1.258572815946     1.762428767371
H     -1.880231582194     2.462765098075     2.296752281729
N      3.084729098066    -1.593250631082     1.022518758675
C      4.390719067778    -1.210009858186     0.852698462910
C      5.407039866587    -2.133595436052     0.976938167469
C      5.127071676290    -3.450961087589     1.260460708146
C      3.816668078839    -3.820660038296     1.395554623176
C      2.796145138221    -2.857231839171     1.246299990406
H      4.633124720488    -0.179654162634     0.622249529554
H      6.429544588715    -1.816769786895     0.850674375778
H      5.925226326975    -4.181899563514     1.360288236042
H      3.528125876349    -4.835203684417     1.589881508370
O      1.583782654852    -3.331512366720     1.349675344331
H      0.789793620044    -2.701042213469     0.940223996080

