# STO-3G

title

0 1
C      0.257169995470     2.463767552336    -1.209566433441
C      1.029360385217     3.451199492912    -0.566038214048
C      0.887887084036     4.804133528372    -0.939869565989
C     -0.013096640616     5.172430834116    -1.957503740446
C     -0.777978087771     4.181802382541    -2.603109279128
C     -0.642033219610     2.825856242721    -2.236590548797
H     -0.496793942723     0.178338673334     1.617894692991
H      1.722611908245     3.190334397139     0.231331225704
H      1.479241171003     5.561888356968    -0.429262464526
H     -0.118264266568     6.217039772830    -2.240951630022
H     -1.478085262685     4.458532206387    -3.388808579234
H     -1.237060550889     2.070135896838    -2.746093441014
C      2.175723142234     0.435086917408     1.922838902657
H      2.621377780180     1.244575868783     1.348140705563
H      2.424178000253    -0.567980968153     1.592804399719
C      1.351225690136     0.649266423737     2.976307064940
H      0.932571028123    -0.195355246476     3.510054334650
C      0.946658832443     1.975822465860     3.469580526688
O      1.425422556640     3.018271909348     2.942816299600
O      0.073472184937     2.048266823327     4.569792876347
C     -0.294548711699     3.369267641747     4.990168998697
H     -0.987279551642     3.300331083261     5.856246775727
H      0.602721990285     3.947793928048     5.307199709610
H     -0.815121614652     3.913540057988     4.169674128255
Pd     0.299151018705     0.584414733573    -0.586059059829
C     -0.934987763265    -2.299903828484     0.367232478888
O      0.091329596356    -1.407117412966     0.500277873811
O     -0.902507684423    -3.287382433239    -0.384666676308
C     -2.138214450924    -1.942540437895     1.308825795502
H     -1.701842283003    -1.832550661121     2.317660190135
C     -3.185171285044    -3.027613921381     1.348528387449
H     -3.977265554650    -2.753768278343     2.075842827541
H     -3.644191497334    -3.128323438525     0.343298177466
H     -2.731042253268    -3.994709204787     1.647851181114
N     -2.836927408968    -0.712196275693     0.904505702572
C     -2.349819315827     0.456795288566     0.852674982276
O     -1.032795749846     0.881846220956     1.159939222352
C     -3.214651165159     1.562216244258     0.437319806278
H     -4.225661574047     1.170774152880     0.219944563879
H     -3.254781285351     2.282952444704     1.270727645780
H     -2.780597013202     2.033817210516    -0.458780671842
N      1.801816395434     0.027496366496    -1.894244407893
C      2.151268482036     0.745257853229    -3.010801974542
C      3.270684417899     0.399764715804    -3.738153832491
C      4.050519350952    -0.668586157759    -3.361795673687
C      3.680652009380    -1.382031846116    -2.255008609406
C      2.524913873877    -1.012152455433    -1.534092706737
H      1.552899771643     1.584065976208    -3.338000167955
H      3.533982931296     0.975918433415    -4.610368976906
H      4.933587602249    -0.943170346590    -3.932880868248
H      4.237774630854    -2.233803412803    -1.917825689485
O      2.271148926930    -1.779711684953    -0.506816356067
H      1.290523248942    -1.697383040233    -0.026771608968

