# STO-3G

title

0 1
C      0.211815975381     2.358086841775    -1.748653930705
C      1.297905432232     3.248875258634    -1.606376067422
C      1.260657297122     4.514101281920    -2.230394221552
C      0.149973263774     4.889876336989    -3.010051362386
C     -0.926108589575     3.994267982531    -3.165002915540
C     -0.896668193111     2.729977229462    -2.539989996560
H     -0.559392397484     1.294051131652     1.517332326068
H      2.170791126401     2.970629317657    -1.018195954185
H      2.097883070152     5.198702629185    -2.106757670624
H      0.124069626632     5.865388457191    -3.490446221223
H     -1.786392830590     4.275909855758    -3.769310949048
H     -1.733885956542     2.048580100815    -2.676816269888
C      1.592471311116     1.094438898351     2.227197514014
H      1.670042902197     0.195296698219     2.833013942876
H      2.033178172917     1.025901104794     1.235167757902
C      0.957345104236     2.228381875487     2.621892026534
H      0.899657689751     3.075196160415     1.949124222230
C      0.345355097555     2.429420585327     3.945419632108
O     -0.204839529550     3.534691797437     4.197693931500
O      0.360178784551     1.388314217488     4.891604341350
C     -0.290824783733     1.662373643293     6.139477948641
H     -0.213462196039     0.769463618587     6.796534208558
H      0.193788277900     2.520197139653     6.658223627966
H     -1.370231033422     1.885249189912     5.981164010328
Pd     0.199139834939     0.615560836066    -0.798591540139
C     -0.309754803625    -1.562525721241     1.689375055759
O      0.262564844905    -1.152403951191     0.547025288098
O      0.340745610580    -1.946372633104     2.688182402860
C     -1.870848526284    -1.612258171688     1.728096865127
H     -2.129088722244    -1.694927090410     2.793188755910
C     -2.382314150043    -2.862880955750     1.045222742585
H     -3.476210641224    -2.958680070230     1.210662816736
H     -2.193287738293    -2.789064604570    -0.044656243964
H     -1.878164689633    -3.763701478288     1.453460391828
N     -2.667569245431    -0.523077885819     1.185791557089
C     -2.409013334361     0.644598875620     0.796037150591
O     -1.148589242936     1.313203871292     0.714520675462
C     -3.511610094838     1.480035891324     0.313235377338
H     -4.460471860262     0.918999368521     0.401473288912
H     -3.543279612279     2.383917163230     0.944601292857
H     -3.316447356158     1.747494984361    -0.737107169522
N      1.726245248239    -0.096119773782    -1.978045317820
C      1.881534539946     0.273860110175    -3.289328715000
C      3.019135532477    -0.086020651457    -3.980628709207
C      4.008784422795    -0.821709079660    -3.369302214298
C      3.826199571509    -1.198935126110    -2.066239937074
C      2.645980190144    -0.827665574370    -1.387299314085
H      1.111626346070     0.847721147967    -3.790690930070
H      3.132377295068     0.217567889549    -5.008726584722
H      4.908364629913    -1.103779712463    -3.910178837063
H      4.551742602616    -1.785290852093    -1.537512350946
O      2.568391645649    -1.262878221544    -0.156281801339
H      1.568267499278    -1.256919623547     0.304308252643

