# STO-3G

title

0 1
C      0.176266179448     1.898939390951    -1.039262133087
C      1.248890648626     2.786809304501    -0.797809360571
C      1.237976586501     4.085508076154    -1.349971617660
C      0.161587681662     4.506150028735    -2.153689399732
C     -0.909108707629     3.623355896405    -2.397265452291
C     -0.904181615614     2.326518926869    -1.843421647495
H     -1.285831509336     1.245987701541     1.524104201700
H      2.089503347489     2.483862450799    -0.174410911243
H      2.068032958006     4.760190215361    -1.149318145233
H      0.154626515354     5.506049588348    -2.581713703069
H     -1.747929820691     3.941667544207    -3.013620073691
H     -1.746854556137     1.664299245198    -2.031265603137
C      0.754624232385     0.823265968212     2.700869898376
H      1.648934314253     1.068422692762     2.132978379243
H      0.559865365805    -0.238187436909     2.826471768866
C     -0.087933607991     1.762072849876     3.205405042754
H     -0.951122369851     1.454515233950     3.784510297909
C      0.100326750541     3.214101379261     3.065902509663
O     -0.771602438616     3.986854078635     3.544869320569
O      1.224187911272     3.711945731171     2.379540368248
C      1.257471216136     5.131903741081     2.182251357416
H      2.185785157401     5.405833245351     1.637361803325
H      0.386408490822     5.463907740638     1.572365914559
H      1.254890105121     5.668448044712     3.158192143460
Pd     0.095542741486     0.086304488081    -0.211120068508
C     -0.869346551338    -2.778528303088     0.712299152594
O     -0.045738815971    -1.741073729650     0.957688717265
O     -0.554422051656    -3.973790998249     0.855841814366
C     -2.312032163524    -2.403078074406     0.226609608026
H     -2.888715813144    -3.323927783488     0.356202869674
C     -2.342707059449    -2.033746672633    -1.245910700796
H     -3.398444224760    -1.934598418127    -1.574717066590
H     -1.834445732928    -1.065206251205    -1.406925276085
H     -1.851268920497    -2.823368307435    -1.851942460313
N     -2.993417600524    -1.356388729551     0.975802249415
C     -2.760397742557    -0.155492050564     1.256609248690
O     -1.667705548255     0.656939731855     0.823622410911
C     -3.769158783696     0.548036318819     2.063008566638
H     -4.733704175467     0.471201278980     1.532330248956
H     -3.834102729431     0.033785709507     3.036686290205
H     -3.489053924347     1.608175779491     2.195888971705
N      1.930310071812    -0.435539899584    -0.970523789775
C      2.381328219528     0.031192672344    -2.178439413764
C      3.685018962321    -0.196395987859    -2.565569066891
C      4.546167817334    -0.898702038068    -1.753053895048
C      4.069665072380    -1.378907923858    -0.563000641200
C      2.726547952604    -1.143962469553    -0.199690014203
H      1.717298966971     0.582548197489    -2.833539770498
H      4.030123518791     0.183779093820    -3.513391182461
H      5.575055840397    -1.077843703634    -2.054129506577
H      4.682149622268    -1.952346613524     0.104668725210
O      2.367689872411    -1.680652878535     0.939224952938
H      1.287374617624    -1.807590202432     1.078220027626

