# STO-3G

title

0 1
C     -0.609084926642     2.604729522532    -0.658533046758
C      0.026044890067     3.829850049562    -0.373642195275
C     -0.431698973869     5.015154690941    -0.989435644330
C     -1.505608890056     4.978669583194    -1.898662590535
C     -2.128003476642     3.749880846483    -2.192975737890
C     -1.678456021213     2.561655496399    -1.581344434213
H     -1.205772440648    -0.167827905021     1.957596891920
H      0.855903404388     3.881617502301     0.326408250255
H      0.052347360419     5.960054903441    -0.751565556529
H     -1.853406631402     5.894701116399    -2.370185891046
H     -2.958334360500     3.711030249194    -2.894925233411
H     -2.166334572659     1.618270479053    -1.821560159022
C      0.284264522517     0.300819879106     3.926615695170
H     -0.457872627856     1.015617365700     3.576194825105
H     -0.080609049496    -0.504134983939     4.557918307915
C      1.589569273035     0.384670231402     3.583741565152
H      2.306465135365    -0.339075807597     3.941943114208
C      2.138091021609     1.397982667538     2.672486240363
O      1.360382160402     2.022525673988     1.898413074935
O      3.532370333378     1.555688926694     2.584875241039
C      3.996093199970     2.551393193417     1.661789314980
H      5.106795501919     2.577457268496     1.678590194839
H      3.673279752176     2.314325901451     0.623191639986
H      3.618644327172     3.559425372927     1.945718148122
Pd    -0.157608259290     0.862634378679     0.186032469487
C     -0.749433773984    -2.357154724720     0.825346852815
O     -0.118842176584    -1.201156108294     1.170471987491
O     -0.197127779973    -3.470342659792     0.895727088087
C     -2.241027621121    -2.283653002719     0.324285893896
H     -2.739552472985    -3.108314994571     0.854222775550
C     -2.307810852386    -2.620201293014    -1.152295680119
H     -3.367763431177    -2.737659573058    -1.462757498342
H     -1.855453297484    -1.796999407812    -1.739815166172
H     -1.771049010634    -3.569123405503    -1.363769186146
N     -3.093954793463    -1.114573484293     0.482230219261
C     -2.954823074090     0.029323647949     0.999105166078
O     -1.836231553206     0.570875707557     1.673820101280
C     -4.072664407202     0.972467060853     0.921090322416
H     -4.908989057662     0.504528445727     0.370134057379
H     -4.378654422078     1.208537181616     1.953428328864
H     -3.726749515674     1.883937907977     0.404950044322
N      1.595414299301     0.601887729472    -0.872065062802
C      1.925815147222     1.328336959111    -1.986749874853
C      3.192909852774     1.235058833231    -2.523737303285
C      4.135190577034     0.407012402489    -1.958559801848
C      3.781332714952    -0.320115213454    -0.855092289602
C      2.476177267352    -0.209530820746    -0.327615043516
H      1.197031371586     1.973568985759    -2.459941417516
H      3.440298836535     1.813032646247    -3.399230297855
H      5.133792710441     0.328932832499    -2.380296738812
H      4.466476861651    -0.987357932562    -0.369947291766
O      2.264247278217    -0.960851863525     0.723530725038
H      1.244804789785    -1.133540537507     1.041468549729

