# STO-3G

title

0 1
C     -0.561427628368     2.255378750545    -0.823000359338
C      0.322423948403     3.355883562409    -0.779569613460
C     -0.099368333820     4.630899654694    -1.213193285760
C     -1.403637427957     4.815517750097    -1.708742054470
C     -2.287392850986     3.719284423842    -1.760888015265
C     -1.871996523347     2.447108133710    -1.318021363608
H     -1.298623070513     1.033764131277     1.990108697988
H      1.336788215536     3.229885674159    -0.410285546915
H      0.589606169993     5.472106131633    -1.159786804518
H     -1.728227313524     5.797660789066    -2.045272989163
H     -3.299000070247     3.853105094840    -2.139742741372
H     -2.576528360199     1.618594637985    -1.349497617250
C      0.206414985587     0.423334800021     3.388103502907
H      0.800156453189    -0.183188371347     2.710830247367
H     -0.552864107367    -0.122832536965     3.945387677443
C      0.363846662019     1.762928069418     3.530353354781
H     -0.259182617601     2.322450235327     4.214975696521
C      1.406526609273     2.547768277508     2.851196182832
O      1.559506266867     3.757815346670     3.164545779917
O      2.214121016312     1.941575887381     1.870750176735
C      3.406313933340     2.657172676729     1.515202142225
H      3.956785313541     2.091610567673     0.732653030258
H      3.166696895172     3.667709060285     1.114195306199
H      4.076342476628     2.764252251189     2.397898912424
Pd    -0.075529387850     0.444494155726    -0.141073463640
C     -0.318585802392    -2.613374368862     0.660445068414
O      0.339030592755    -1.451794412874     0.830528005520
O      0.207647997047    -3.736471638025     0.770765684593
C     -1.844259456183    -2.504548123834     0.311158866038
H     -2.216539752450    -3.528235414039     0.415823567298
C     -2.074718957441    -2.067312396310    -1.124191592515
H     -3.153299255413    -2.167224975689    -1.367739424382
H     -1.783982521612    -1.008650020183    -1.252133526095
H     -1.490008722399    -2.704783065095    -1.819922311211
N     -2.662415487461    -1.662738576532     1.173832817822
C     -2.622281429217    -0.474435969349     1.575573929698
O     -1.695822461152     0.554053338065     1.217423546137
C     -3.704374611872    -0.031687681130     2.466463575006
H     -3.659510465081    -0.647628514439     3.380673411837
H     -3.580342969471     1.038379712885     2.705233251815
H     -4.663273728049    -0.199341062773     1.945046599258
N      1.644181706420     0.344295163439    -1.261542404200
C      1.769132293133     0.997145254445    -2.460840206443
C      2.998918015811     1.083628300419    -3.078647128443
C      4.111232345313     0.505441894498    -2.511371504758
C      3.961000595088    -0.167743256442    -1.329514842921
C      2.687453473009    -0.250680015193    -0.724851283200
H      0.903664826822     1.449005295484    -2.930310695670
H      3.084288386359     1.607564379674    -4.016848268489
H      5.081508692812     0.569004412273    -2.996989516426
H      4.780925481393    -0.665266366036    -0.850011980724
O      2.662537094855    -0.962104448408     0.373755199828
H      1.678271097967    -1.274196712985     0.706327370000

