# STO-3G

title

0 1
C     -0.174305090052     1.951237376632    -0.970536261324
C      0.855102696491     2.915846093552    -0.895514428665
C      0.608444561360     4.253603005365    -1.270486874124
C     -0.662438074179     4.636905631840    -1.739316269364
C     -1.689547324401     3.676041399952    -1.823118075279
C     -1.449549265091     2.340231075772    -1.439635043938
H     -0.898342160048     1.060330302505     1.774834526861
H      1.846205176506     2.642826887260    -0.533498872751
H      1.409679352212     4.986409602611    -1.190713641994
H     -0.850139772631     5.667206067812    -2.032782157485
H     -2.675857767814     3.963444243366    -2.182624219753
H     -2.259819321946     1.616373370910    -1.497748930749
C      1.497773460975     0.585537538944     2.338710554068
H      2.247959858900     0.788563211325     1.577479305784
H      1.266540108424    -0.465410953781     2.487903079447
C      0.875545043716     1.565960797639     3.043012125617
H      0.157238130293     1.305396777190     3.810758804049
C      1.130497686423     3.006641235372     2.879346713786
O      2.026740899540     3.405002273912     2.086179443373
O      0.351049245577     3.914761542857     3.617186325413
C      0.589106694167     5.303615489263     3.348189082037
H     -0.083472176862     5.922243072745     3.980415951348
H      1.641652033850     5.578581458427     3.586983181474
H      0.377921942138     5.540080275004     2.280046960767
Pd     0.089714887768     0.078326126974    -0.337347551143
C     -0.434858388946    -2.919538335169     0.501641655339
O      0.368548308285    -1.846144901260     0.628135329176
O     -0.031528621188    -4.093871598603     0.418676132515
C     -1.973557667109    -2.619343457765     0.474991071281
H     -2.441895078323    -3.590123900486     0.663420118273
C     -2.438117580766    -2.129848984178    -0.885094360366
H     -3.547197119543    -2.082063804317    -0.896114710893
H     -2.042313983922    -1.116215534302    -1.080959908308
H     -2.101266811261    -2.826463078442    -1.681066710077
N     -2.465289885620    -1.696284853106     1.487485651222
C     -2.230123243561    -0.509668644575     1.815947494210
O     -1.357342356438     0.423445852317     1.175226237251
C     -2.990298800742     0.061682547078     2.938494542459
H     -3.692698130950    -0.699541172656     3.326594891306
H     -2.276151469914     0.351163654945     3.725087411885
H     -3.546423215944     0.939055625868     2.566360494666
N      1.673107925353    -0.224862240741    -1.609796560164
C      1.758914076990     0.396532884070    -2.829306518963
C      2.921276640486     0.317896568858    -3.566957409718
C      4.005811906145    -0.386050563553    -3.094995408239
C      3.892203571903    -1.021028614325    -1.887805951685
C      2.685569103532    -0.934949284044    -1.161223521384
H      0.914704944403     0.951438547806    -3.220722071745
H      2.979065757035     0.819439986810    -4.519281525283
H      4.925146432999    -0.446054846469    -3.671625994729
H      4.692502572413    -1.602076303407    -1.473738127684
O      2.677451625405    -1.609516408965    -0.039333333268
H      1.686656316045    -1.824167186309     0.373581400523

