# STO-3G

title

0 1
C      0.112819633462     1.781466607577    -2.011837108489
C      1.101628942758     2.736503305316    -2.342411862746
C      0.879994183636     3.660797385452    -3.385706975735
C     -0.324277842174     3.633016813791    -4.114351605269
C     -1.311146977235     2.681461944870    -3.788990924800
C     -1.097111750768     1.761538791555    -2.741971466765
H     -0.947189399959     2.123879482278     0.893262128335
H      2.043449648581     2.767405709912    -1.795800061418
H      1.646470831865     4.395874119176    -3.625255115704
H     -0.493044918154     4.342666247007    -4.921272706785
H     -2.246549131129     2.655394382907    -4.345024424857
H     -1.877910583589     1.044811021664    -2.495759044922
C      0.489421500522     3.331469042248     1.667983197845
H     -0.340228306210     3.961957592520     1.984986119971
H      0.946325156934     3.575883887810     0.712720963840
C      0.983878466289     2.319882324801     2.426351165246
H      1.832744473941     1.743569518987     2.083604191673
C      0.417791652039     1.884284452436     3.712943045774
O      1.040681454330     1.030866756745     4.396904733673
O     -0.814981136084     2.410825361913     4.147249477346
C     -1.329353892085     1.861148824899     5.368611220502
H     -2.297884467864     2.346457170193     5.614519994801
H     -1.503905000122     0.765333461231     5.264612708141
H     -0.625029712487     2.042910175988     6.212156526216
Pd     0.341396632601     0.513566697019    -0.491223470106
C     -0.114646549511    -1.754625537697     1.635062990048
O      0.550778654743    -0.618197390017     1.351823143787
O      0.398831564621    -2.766479689001     2.146275864146
C     -1.640434981475    -1.755177134556     1.275395553874
H     -2.056567368337    -2.576224132418     1.867516041270
C     -1.876670688723    -2.072008414038    -0.190672887541
H     -2.963539664370    -2.220010326445    -0.361803806169
H     -1.533666781730    -1.230771073699    -0.821121229994
H     -1.339418274780    -3.000750298335    -0.475792714863
N     -2.398299176137    -0.556426264847     1.605238024296
C     -2.307229948383     0.666118418449     1.335132977427
O     -1.365086385594     1.320778134186     0.481446393072
C     -3.339523027883     1.550527857222     1.894110031713
H     -4.322053351394     1.167176478391     1.570292889024
H     -3.254827442780     1.500473638670     2.992516416211
H     -3.189792506483     2.585281941057     1.540517042478
N      2.159795279350    -0.121912714681    -1.190058936986
C      2.443402868785    -0.226343692687    -2.527282752222
C      3.734100936927    -0.476579491453    -2.943190535543
C      4.748712884532    -0.635609051105    -2.025920890149
C      4.439475492583    -0.554935384971    -0.694795179527
C      3.107007507247    -0.313492022467    -0.298260915079
H      1.656644593070    -0.105212409949    -3.262632770681
H      3.947082087269    -0.546360846104    -3.997538333333
H      5.767442079723    -0.831886043929    -2.349945410809
H      5.177566680813    -0.692617569461     0.070926767224
O      2.913630153704    -0.293673173047     0.996731661372
H      1.875539908496    -0.483811420447     1.320319859985

