# STO-3G

title

0 1
C     -0.056077721904     1.874073021414    -1.313206310141
C      0.879208851905     2.924059742616    -1.174147603110
C      0.666439501681     4.158275186337    -1.824215905518
C     -0.472384188166     4.349784862339    -2.629145624615
C     -1.404342054304     3.302935358832    -2.773759289894
C     -1.200754544842     2.071261749329    -2.117718460737
H     -1.244131405209     1.136524315345     1.510445968168
H      1.770230229422     2.798005683881    -0.559521058691
H      1.389647758137     4.961932041184    -1.695280542110
H     -0.633184259615     5.300356505032    -3.132710148711
H     -2.289382146530     3.443862460903    -3.391367341542
H     -1.940292017136     1.280872906839    -2.229194665752
C      0.071925485577     0.825660052323     3.237059655426
H     -0.584481398285     1.164944061178     4.034767969111
H      0.067067695885    -0.237277728464     3.004455005829
C      0.897992612438     1.653120039500     2.548748692067
H      1.541111770678     1.239678139498     1.781835664038
C      1.006077371995     3.105722584408     2.752424201525
O      1.820284601904     3.756815827643     2.044675156250
O      0.177585490217     3.746757081661     3.692780643133
C      0.327827623189     5.169886951766     3.791274355176
H     -0.371970066719     5.561827177319     4.560291837432
H      1.365025247615     5.438043120921     4.095670106568
H      0.088403940482     5.660468561366     2.820389169249
Pd     0.152580100402     0.154082784711    -0.330205336847
C     -0.359297804965    -2.721203519928     0.856100199729
O      0.310499035854    -1.561259785454     1.003342543456
O      0.120813385713    -3.844144154731     1.095117294979
C     -1.842602429860    -2.597527532384     0.361313419684
H     -2.280209868564    -3.577674874071     0.574630207848
C     -1.929359134321    -2.363482025586    -1.136158647274
H     -2.987917771281    -2.453722783086    -1.458566449492
H     -1.574500245219    -1.346513423594    -1.384810362842
H     -1.323842165402    -3.118172897323    -1.680420753969
N     -2.673210948802    -1.601481491713     1.023550492542
C     -2.601255632237    -0.367080134413     1.238997341395
O     -1.605549465864     0.557785526347     0.790393513496
C     -3.712717071382     0.247316120247     1.978689878674
H     -4.642919693954     0.028496800213     1.426724626205
H     -3.747270966224    -0.221207011368     2.976689103829
H     -3.560919519705     1.338125268766     2.060847146888
N      2.003780203006    -0.189338823834    -1.143836930410
C      2.335271944187     0.221256188918    -2.409536106140
C      3.639233026209     0.129008753622    -2.848143669182
C      4.621837596465    -0.376580479002    -2.027240520715
C      4.266749861151    -0.802931377799    -0.775879972925
C      2.921960067809    -0.710021757109    -0.359251128328
H      1.575273957222     0.619365485880    -3.071295842389
H      3.888871499759     0.464336213910    -3.841671386197
H      5.651725444137    -0.445273611933    -2.367682727658
H      4.980377204040    -1.222505719540    -0.094457204183
O      2.690810636654    -1.174890858554     0.843427431760
H      1.650788856355    -1.430470212270     1.058474296362

