# STO-3G

title

0 1
C      0.053428478135     2.438564661959    -1.197183481613
C      0.951722658751     3.436640580389    -0.767253798580
C      0.765972696450     4.774376662207    -1.175720619288
C     -0.302271618529     5.116853284233    -2.026655642945
C     -1.185846237845     4.114512702433    -2.472367759402
C     -1.007968577965     2.775837910923    -2.064954877289
H     -0.865976282553     0.343369072761     1.689890999491
H      1.790260584805     3.189677778810    -0.118193578119
H      1.457459077180     5.539270081737    -0.826927524600
H     -0.441317685513     6.148779955170    -2.340532509661
H     -2.009152471679     4.369470073284    -3.136723244866
H     -1.692338195965     2.011420826196    -2.427938517057
C      0.499321862928    -0.146330615229     3.262040539015
H     -0.115984574370    -0.006509906583     4.147284085554
H      0.571209067861    -1.149556589519     2.852938985319
C      1.193414796946     0.859365980292     2.673661710705
H      1.795282373691     0.650839805722     1.797225663520
C      1.191014350329     2.259121110996     3.125128978064
O      1.892136408976     3.097488398528     2.497824515945
O      0.430151391498     2.635794336065     4.248035356781
C      0.469789545146     4.027554820356     4.592478326343
H     -0.166990888636     4.203739013460     5.485874877162
H      1.508763455778     4.345031992280     4.837342252491
H      0.078401085503     4.652075584775     3.757429691896
Pd     0.209116817949     0.568549849036    -0.555782092507
C     -0.571365290476    -2.498765500596     0.371383075461
O      0.260032099316    -1.428174669297     0.460180914366
O     -0.286645064527    -3.559297584080    -0.209377478785
C     -1.911129635237    -2.260752840886     1.159737381357
H     -1.601296710384    -1.984010970641     2.182976154464
C     -2.769622539830    -3.498995717535     1.231275388316
H     -3.668451677741    -3.293893676693     1.848861614213
H     -3.096498945356    -3.775503522915     0.207455904561
H     -2.201511075542    -4.340443207309     1.678897097359
N     -2.746771217781    -1.216033869913     0.558069039752
C     -2.506217814439     0.024242550941     0.478920199866
O     -1.371734300937     0.750855710509     0.933949965540
C     -3.501788796822     0.866037736984    -0.187398312006
H     -4.453229695326     0.747343825475     0.359235129331
H     -3.174548869597     1.920637673297    -0.159717589097
H     -3.616958483919     0.509431173220    -1.225355998336
N      1.895227561424     0.232676234034    -1.688486033442
C      2.171853657742     0.917399991689    -2.844649676542
C      3.401047454516     0.780987856267    -3.454854585092
C      4.363191083270    -0.043847485006    -2.918824892150
C      4.061631383170    -0.736423517538    -1.777793794097
C      2.791043449681    -0.587293892038    -1.181836638970
H      1.427528112549     1.564829123272    -3.290979912223
H      3.607240603808     1.330613742707    -4.358787410357
H      5.334000088303    -0.151087113215    -3.395541994156
H      4.759857007841    -1.409229340087    -1.320599551977
O      2.603982268113    -1.319966208121    -0.114531095625
H      1.558706242406    -1.474290384607     0.193341646103

