# STO-3G

title

0 1
C      0.123923683455     2.336383140347    -0.932830853004
C      1.279069383391     3.126504015617    -0.752327084039
C      1.262708220833     4.493804916786    -1.101342557983
C      0.098405667861     5.076849201142    -1.636497102324
C     -1.052552329535     4.286224826945    -1.822487474066
C     -1.041300352017     2.919027862853    -1.476993668781
H     -0.689135785130     0.466026274333     2.005715108000
H      2.185838257523     2.692529050282    -0.333669518430
H      2.158200928455     5.094586394721    -0.954256171446
H      0.087993851273     6.130163541328    -1.907444193503
H     -1.956237149382     4.728054664796    -2.238166021664
H     -1.936593380012     2.320997065861    -1.636313742514
C      1.574916932410     0.179892256748     2.505400650501
H      2.117322682596     0.689795428777     1.711600830230
H      1.658270992887    -0.902791214485     2.521214875875
C      0.804658152101     0.834984267513     3.412975232942
H      0.289044483985     0.275830590907     4.183809037313
C      0.641947281425     2.297042776146     3.467207593338
O     -0.112820413229     2.794474844659     4.345131774365
O      1.333485526140     3.111396196454     2.549867783248
C      1.003967958483     4.506651901328     2.582252103989
H      1.611166280526     5.045963125822     1.825029245471
H     -0.071028768430     4.661000377338     2.335554539077
H      1.224548061937     4.944196136730     3.582230658809
Pd     0.078178627344     0.422684963131    -0.406393438469
C     -0.532031667399    -2.223147329367     1.510501222053
O      0.049162906172    -1.633031639199     0.454700695280
O      0.110754286480    -2.759996219773     2.443173019859
C     -2.093013981856    -2.263483063478     1.525723063909
H     -2.369037778244    -2.545932386047     2.551452863920
C     -2.611869580341    -3.346059801074     0.604402059692
H     -3.709660901154    -3.451946517706     0.733636342862
H     -2.404000389712    -3.063438421743    -0.447371984812
H     -2.127996406214    -4.318223434760     0.834523537707
N     -2.855244247702    -1.068299028656     1.190141990935
C     -2.537788459667     0.147185645704     1.094295274722
O     -1.257683513279     0.761167637996     1.243711909141
C     -3.594615662715     1.095203294934     0.734612445948
H     -4.007578838477     0.789891605791    -0.241284714849
H     -4.374260092459     1.026757704820     1.512621909544
H     -3.183747698310     2.120212048592     0.694155745770
N      1.565116799053    -0.049329586147    -1.746966334662
C      1.730570269882     0.617681620523    -2.933660819702
C      2.846769832841     0.384883708750    -3.709344414844
C      3.803631373365    -0.519698935110    -3.308620420302
C      3.608422507119    -1.193188937458    -2.133054452191
C      2.449766920938    -0.944590007852    -1.366530331443
H      0.986112823210     1.329340672878    -3.269783468515
H      2.969184809398     0.922013411290    -4.635824306029
H      4.686583727719    -0.702577560036    -3.915476809734
H      4.306865516271    -1.922981526935    -1.773635666703
O      2.353234462145    -1.667716458583    -0.280192819255
H      1.361241711591    -1.722561909587     0.179514612092

