# STO-3G

title

0 1
C      0.038603518556     1.950997600972    -1.640692132094
C      1.171648671481     2.758838696899    -1.888445876062
C      1.045555233605     3.954130345914    -2.628027611609
C     -0.208089089434     4.346860780892    -3.134213367011
C     -1.339098646932     3.543290618561    -2.889046541413
C     -1.219209267884     2.352155514531    -2.143968771922
H     -0.625484860374     1.670374248848     1.417577921323
H      2.150364202895     2.469138321530    -1.508431623296
H      1.923979722272     4.572391916539    -2.804904010224
H     -0.303779941036     5.266260920751    -3.707555732029
H     -2.313012880045     3.842333307530    -3.272232862964
H     -2.107072243536     1.753583114653    -1.950781290706
C      1.743524849847     1.610393326568     2.039108539693
H      2.168601016343     2.604208089766     1.921802716698
H      2.051630019946     0.865508534010     1.310204335789
C      0.875217540729     1.274881345381     3.026059670060
H      0.490861787338     0.262656461744     3.063941466397
C      0.413513241941     2.185382242390     4.085388616003
O     -0.474048457112     1.783982854328     4.884221186803
O      0.880000934887     3.513124569351     4.120268598611
C      0.343354360053     4.338850607489     5.163286028396
H      0.786704599944     5.355416319786     5.092922036183
H     -0.761754568408     4.433878824559     5.063626047453
H      0.589982128267     3.920277879337     6.165468567633
Pd     0.148616799412     0.300005885242    -0.531164584317
C     -0.559987112252    -2.348501564365     0.987083122750
O      0.305117336949    -1.316450588252     0.922119932869
O     -0.228033852872    -3.534534882669     1.163886822430
C     -2.074864846859    -1.976053219590     0.829027529314
H     -2.610168981584    -2.843852225852     1.226867111303
C     -2.472938485976    -1.808926187738    -0.626531068324
H     -3.577265802537    -1.716207025717    -0.693447954296
H     -2.020297958970    -0.890405105702    -1.042945185215
H     -2.151179975044    -2.691243537176    -1.218464037207
N     -2.535929864797    -0.808042239789     1.562731047816
C     -2.213924603286     0.401917180197     1.636878114094
O     -1.228875749984     1.107736545728     0.869301765230
C     -2.981283378089     1.244483872415     2.564653562078
H     -4.049258031862     1.145870798499     2.306490117608
H     -2.800503504696     0.862026375159     3.584960397532
H     -2.657988168407     2.296824492968     2.485155233083
N      1.669402882915    -0.466318999749    -1.675029196345
C      1.757237519511    -0.245619282641    -3.025452420765
C      2.886798035982    -0.629130525612    -3.716957824013
C      3.932842121828    -1.244693314788    -3.067024840265
C      3.814437083767    -1.479893921873    -1.723556912487
C      2.640090812527    -1.091237378176    -1.045043488103
H      0.942623965353     0.235214443516    -3.554154282971
H      2.948315373613    -0.441649336386    -4.776773772995
H      4.825247977357    -1.546984745401    -3.608918966641
H      4.582483100736    -1.976128369166    -1.163332344611
O      2.616340563199    -1.397904175197     0.228054820086
H      1.615929740069    -1.440451781441     0.682674081203

