# STO-3G

title

0 1
C      0.107981325073     1.896727471560    -1.924118013756
C      1.180179554784     2.732355344828    -2.313555741149
C      1.006753451683     3.685539978316    -3.339624980645
C     -0.234307768422     3.806897092916    -3.993120643956
C     -1.304906729246     2.974956878261    -3.610040298412
C     -1.137480089533     2.026603928811    -2.580000941188
H     -0.862358088854     2.358665545950     0.953915690554
H      2.151311418046     2.647441160519    -1.827482435290
H      1.838704447535     4.327508901309    -3.624209125475
H     -0.366633914899     4.539291015047    -4.786417463842
H     -2.268756744403     3.064370843004    -4.107868151465
H     -1.980285481150     1.403019922150    -2.288443478260
C      1.474346398061     2.664677347236     1.600347405159
H      1.904835369822     1.681285538213     1.770711421852
H      1.851303758782     3.205425477824     0.736448321779
C      0.518235780672     3.199975191926     2.403026119400
H      0.126934604461     4.189909554787     2.205517547012
C     -0.041981493662     2.522178681694     3.583999187922
O     -1.018980971967     3.053223824993     4.176789473225
O      0.409587633949     1.236248754015     3.925773699456
C     -0.368450983747     0.529104738562     4.900747705171
H      0.083726524217    -0.472768110045     5.071301990498
H     -0.385920225708     1.076485149568     5.869687416910
H     -1.409864314821     0.373878458779     4.537019095639
Pd     0.271317431410     0.586705561488    -0.428580348054
C     -0.336279041656    -1.479778297427     1.966704306530
O      0.477443078599    -0.601684398612     1.357022877692
O      0.035913833390    -2.297172678659     2.829563522443
C     -1.845163345123    -1.432987045049     1.541394422273
H     -2.328422287402    -2.177517832767     2.180812966515
C     -2.056085583410    -1.841646404210     0.094842681286
H     -3.143972980898    -1.946898756226    -0.099903818749
H     -1.652654802938    -1.065635790936    -0.581434918694
H     -1.559039118563    -2.813198879762    -0.107322136754
N     -2.541164443148    -0.170489799336     1.759700886072
C     -2.350021337013     1.024811138243     1.426318395193
O     -1.316221421467     1.555726397185     0.593038854145
C     -3.339386847319     2.012259715126     1.878569066995
H     -4.331912004203     1.681153678841     1.529186137028
H     -3.311256098093     2.028619247582     2.982253773667
H     -3.097451027692     3.010408933946     1.473917780744
N      1.974222890308    -0.234727276781    -1.226377461313
C      2.164414120586    -0.349090600987    -2.579395173620
C      3.388862723513    -0.744063639944    -3.075229891991
C      4.429673934407    -1.037446910130    -2.223250093693
C      4.211166675199    -0.944646731144    -0.875084306965
C      2.942680684082    -0.554171142069    -0.395276165021
H      1.355907892574    -0.124154604732    -3.264999995952
H      3.529135786948    -0.820322870136    -4.141333952341
H      5.396759329485    -1.347272886100    -2.610722926608
H      4.972049863786    -1.182444642258    -0.157841624119
O      2.832621538390    -0.541071054281     0.909165138550
H      1.799000583053    -0.596299861400     1.294769950340

