# STO-3G

title

0 1
C      1.495179240221     2.637767963984    -1.034228144833
C      2.875247028910     2.666666026745    -0.738419012836
C      3.726767768044     3.524251758139    -1.467112751277
C      3.211010412893     4.346323327438    -2.487834354101
C      1.834339112376     4.309493484770    -2.782754630194
C      0.974279731976     3.456983014004    -2.058391648181
H     -1.565276671796    -0.340993088796     0.076869742971
H      3.286953576498     2.013717401064     0.027145780725
H      4.790471208941     3.543626980167    -1.237351542310
H      3.871519304794     5.006614108298    -3.045373226835
H      1.426013630861     4.940609661365    -3.570122029208
H     -0.087869470645     3.437001440535    -2.299176567538
C      0.508836599943     2.497220964265     1.880269568367
H      0.196387816516     1.795230974822     2.647540916257
H      1.552577225872     2.791534271026     1.880780481147
C     -0.426305098404     3.190689181431     1.103177479174
H     -0.089971362764     3.990392145070     0.462114264846
C     -1.888936207682     3.120192419923     1.274823010405
O     -2.611009606532     3.792597325212     0.493243300492
O     -2.433439061112     2.472458442552     2.398033358843
C     -3.864789545610     2.495894224369     2.495764377821
H     -4.181970883696     1.953042836185     3.411678134902
H     -4.240699464580     3.541902980078     2.565206450643
H     -4.328080853107     1.993879151967     1.615538918848
Pd     0.322251999783     1.379329960263    -0.020257808691
C      1.685362274295    -1.004243253344     1.356167364753
O      0.990523969107    -1.923924517250     0.607553333092
O      2.544181945653    -0.250864214707     0.855093191834
C      1.256074319709    -0.986025173308     2.837799661266
H      1.720241024724    -0.084340563006     3.262869267605
C      1.804307509639    -2.179670341160     3.587540591798
H      1.577116429667    -2.073917863125     4.669107075688
H      1.310129915209    -3.101345225112     3.214916142886
H      2.902774094070    -2.259348118487     3.452621968737
N     -0.181158424846    -0.979581617358     3.095663090755
C     -1.104669631902    -0.553783283092     2.315294442715
O     -1.006375716561     0.053499370682     1.098021435241
C     -2.473485574807    -0.769072342512     2.802492550968
H     -2.601342572945    -1.851977914907     2.967935412135
H     -2.580478223283    -0.214537282727     3.748558519668
H     -3.192652682866    -0.409343817778     2.045558781042
N      0.259772252294     0.035569989515    -1.693412149142
C      1.212133777253     0.045939836236    -2.681554091172
C      0.984596231846    -0.608835911472    -3.873804049167
C     -0.202059496637    -1.268430403133    -4.099929582982
C     -1.141711007517    -1.273921321104    -3.106552968506
C     -0.884615104270    -0.601679283114    -1.890144431608
H      2.163097576877     0.537445736259    -2.520844842313
H      1.744753127530    -0.594463388435    -4.637722349533
H     -0.385455780160    -1.778617279025    -5.041790395898
H     -2.085004810551    -1.771425863769    -3.211982836505
O     -1.835367397788    -0.677590138365    -1.007162400085
H      1.007195739129    -1.689903153504    -0.350361381328

