# STO-3G

title

0 1
C      0.985486700236     2.980143154206    -1.600042378555
C      2.334274957162     2.958147622333    -2.016208434484
C      2.835432698101     3.979681733170    -2.850376631673
C      1.993574634690     5.023707241940    -3.279941800624
C      0.646776618288     5.044669187815    -2.869020706978
C      0.142343445780     4.029390591331    -2.029172886996
H      0.404171844027    -0.887210258093     0.182115743522
H      2.994273862404     2.149130227903    -1.706683631357
H      3.877785070669     3.954994113036    -3.162653308019
H      2.381649064418     5.810171268547    -3.923017070789
H     -0.010916614595     5.848417154347    -3.194433675296
H     -0.902032967584     4.065320004666    -1.720390494454
C      1.257967705479     2.226333381964     1.341573197146
H      1.342331203829     1.323014608699     1.942796356134
H      2.179522164455     2.611403425633     0.916846146188
C      0.071538903892     2.963199829021     1.258337233630
H      0.063471305900     3.898539261129     0.721039916499
C     -1.101923291045     2.741504515621     2.117265803161
O     -2.208406796548     3.217558635099     1.752830472078
O     -0.938720610930     2.133495128477     3.372034468228
C     -2.130907423090     1.957150387948     4.150466637395
H     -1.870938228239     1.466818637652     5.112988287499
H     -2.610661279448     2.936480159863     4.374178679365
H     -2.854822390399     1.295909951603     3.624166741260
Pd     0.210183360826     1.508540698099    -0.494097818406
C      0.764425938604    -1.903549148542     2.607390045030
O      1.768228558564    -1.013320184555     2.212429606436
O      0.797911452557    -3.102713253853     2.302084488544
C     -0.352717062689    -1.184324153672     3.392988558108
H      0.055748325551    -0.211241201855     3.696820653142
C     -0.752144151394    -1.954534982683     4.628366866772
H     -1.506393108439    -1.374095596782     5.198332525764
H     -1.206296348900    -2.919954384387     4.320845287446
H      0.130757788609    -2.143553492639     5.272700409694
N     -1.596484212945    -0.997356859800     2.609656629336
C     -1.577492251917    -0.514789379608     1.419825073900
O     -0.489413885265    -0.152181205868     0.694403960551
C     -2.883747679830    -0.322879907155     0.777449694845
H     -3.385863364345    -1.305599722569     0.757061497207
H     -3.462479893619     0.388861857699     1.388201876363
H     -2.740781615748     0.057579583964    -0.248417946523
N      0.550811245842     0.157309287947    -2.098398750939
C      0.481662325806     0.500352541275    -3.422642034013
C      1.037033961220    -0.322586760964    -4.381686171932
C      1.654061969964    -1.500996595597    -4.022157669251
C      1.697167520657    -1.834493382889    -2.695120133835
C      1.109553692398    -0.974746993171    -1.740423522131
H     -0.002021769231     1.423554430813    -3.719336126423
H      0.982849496106    -0.038311986101    -5.419451267140
H      2.088475161348    -2.154262043511    -4.774037542417
H      2.137609255624    -2.746248142556    -2.345426507634
O      1.175284844162    -1.383646858835    -0.495434026517
H      2.278867189644    -1.389659841955     1.456937005862

