# STO-3G

title

0 1
C      1.099246872101     2.944312605936    -0.277282179802
C      2.495487389009     3.057294048172    -0.444472698361
C      3.084233127826     4.326213509065    -0.630002993358
C      2.284522868593     5.484949257992    -0.654182435628
C      0.890313152052     5.371713562786    -0.489997355268
C      0.295706020022     4.106228384383    -0.302850124473
H     -0.022779190618    -1.255401882316    -0.830924072930
H      3.127752232452     2.171255541886    -0.435922368547
H      4.162958654724     4.404425319247    -0.750995488968
H      2.742020778471     6.461742742989    -0.792190106773
H      0.266086676472     6.262765735992    -0.501537473606
H     -0.783689320483     4.039809997226    -0.175329465906
C      1.085123256210     0.812592774450     1.877936569398
H      1.972357577957     1.428453486794     1.988204371581
H      1.248530069843    -0.253457303787     1.734673833926
C     -0.195112877641     1.322731942893     2.128312545547
H     -1.029180077359     0.637779549342     2.169989735418
C     -0.473299063217     2.671491442971     2.651011631710
O      0.476990502792     3.438032490585     2.955773815164
O     -1.808078724276     3.107132647321     2.691144146229
C     -2.013978121291     4.444808886242     3.168084757445
H     -3.100815113612     4.677593163474     3.159323971192
H     -1.644922702611     4.553550533301     4.213561993145
H     -1.493598306065     5.183304065040     2.516045271431
Pd     0.187146123106     1.177990115953    -0.124952305095
C      0.416502860504    -3.125774059241     1.027566579033
O      1.483192999461    -2.234494165269     0.890117383117
O      0.255587248527    -4.082685892363     0.259998400894
C     -0.514365043991    -2.710460259343     2.187027844030
H      0.049263492176    -2.019459219171     2.829229669812
C     -0.940482975730    -3.898980056275     3.014776334558
H     -1.551749888632    -3.553282860896     3.874085055467
H     -1.561351366893    -4.573302614909     2.387965396730
H     -0.054672239719    -4.449856002219     3.392265857827
N     -1.760544342121    -2.058204986378     1.740837999093
C     -1.834866475628    -1.220792040249     0.771167365366
O     -0.839988052977    -0.748343671515    -0.025252840414
C     -3.166085936479    -0.664256401104     0.487644923649
H     -3.906217873441    -1.114597417823     1.175363833833
H     -3.124842605086     0.426695354181     0.626921839827
H     -3.418708834983    -0.918397943037    -0.556410101841
N      0.586554173742     0.803967300237    -2.186198262227
C      0.755516333711     1.788495185950    -3.125056278307
C      1.340343946161     1.497015428566    -4.340977082632
C      1.749081631575     0.214808409768    -4.632794059552
C      1.551588645162    -0.759586020331    -3.692621522386
C      0.938417086602    -0.429877031514    -2.462870100525
H      0.432945629960     2.801223686268    -2.917124121465
H      1.473977425492     2.282569285285    -5.066084664707
H      2.206478299779    -0.020134480898    -5.590089878978
H      1.817623636914    -1.783292927549    -3.862704304583
O      0.764534421226    -1.437085711265    -1.639758058609
H      1.840540937465    -2.263567549417    -0.031394399681

