# STO-3G

title

0 1
C      0.926143607086     2.827010231429    -0.574644092624
C      2.331004877565     2.950811904813    -0.579918838995
C      2.929820409686     4.184650185184    -0.913150178998
C      2.132516889676     5.295880014368    -1.247921439316
C      0.729697444738     5.170649856454    -1.247807689914
C      0.125124739555     3.941176733718    -0.912279560813
H     -0.115677921972    -1.428693970779    -0.460948075697
H      2.963549973239     2.099563894352    -0.334139780170
H      4.014696256683     4.271682176072    -0.910106102754
H      2.597692312341     6.244946654927    -1.503679646683
H      0.104590690591     6.023769723714    -1.504086262590
H     -0.962049897244     3.866078485190    -0.910840639078
C      0.712268388709     1.044383651143     1.905000407059
H      1.630811329924     1.617509556658     1.983867352047
H      0.813496848856    -0.037353474585     1.960035100834
C     -0.544521065101     1.659420384738     1.948430828872
H     -1.427718698443     1.042731754032     2.035214995353
C     -0.758943329428     3.095154924072     2.191891962876
O     -1.921166691246     3.558843279681     2.058621471683
O      0.341432995191     3.930417421068     2.449185573343
C      0.057718974453     5.332483540273     2.550093202429
H      1.002104936884     5.884404857991     2.746282012390
H     -0.373886009134     5.717866368080     1.598869080819
H     -0.646919090201     5.535669417623     3.388056881907
Pd     0.002582828601     1.098614732103    -0.204231438103
C      0.100408151980    -3.003640106062     1.679441424299
O      1.179943380312    -2.130957584638     1.523510620795
O      0.011398508322    -4.060473445658     1.041826151751
C     -0.937302966977    -2.437262788415     2.671859880690
H     -0.423195749329    -1.690000502675     3.292820383580
C     -1.491895868323    -3.512841776748     3.574876994505
H     -2.179005717429    -3.056764547636     4.317540136900
H     -2.065638313782    -4.239947444200     2.962465375673
H     -0.671931796086    -4.037378904858     4.106971548195
N     -2.104362644820    -1.808204194150     2.025948601029
C     -2.070480381038    -1.118060814844     0.944510623859
O     -1.006727483655    -0.800714181912     0.161213442494
C     -3.363871306381    -0.575387561729     0.506579946561
H     -4.034865780388    -1.434119791755     0.330650358781
H     -3.764101242527     0.053877476106     1.319204169387
H     -3.231963843045     0.004171105995    -0.423634062056
N      0.619126233121     0.362922386376    -2.109294580394
C      0.883570628782     1.163403666734    -3.190121548402
C      1.598060176112     0.669433738414    -4.262928111290
C      2.041476546346    -0.634333326184    -4.269046190765
C      1.748766917834    -1.424949223593    -3.191184803954
C      1.004614164628    -0.891235791598    -2.114907054888
H      0.535754409705     2.188889025748    -3.206732736456
H      1.804799766386     1.312086476326    -5.102554356043
H      2.600056255742    -1.029127930939    -5.113416685499
H      2.035928279120    -2.455810683528    -3.141078295706
O      0.749608129924    -1.734599105232    -1.142098773148
H      1.623884717450    -2.285078863749     0.653015897656

