# STO-3G

title

0 1
C      1.855994840803     3.018389012813    -0.709846863776
C      3.229430111577     2.703526826614    -0.795688419876
C      4.150436056092     3.671868285937    -1.245478917961
C      3.707803565550     4.953766698649    -1.626950889049
C      2.336426981570     5.263406266688    -1.556566939620
C      1.410433721407     4.301081310199    -1.099183509856
H     -1.654048766088     0.067576598459     0.837305553674
H      3.583322405882     1.709126350753    -0.530218810400
H      5.207144177497     3.418515424198    -1.305154839628
H      4.420463632008     5.696941639798    -1.977262195656
H      1.983680299175     6.249568822654    -1.853226550771
H      0.354154739078     4.562842462923    -1.056185542010
C      0.915381639131     2.054893407088     2.129614360986
H      0.631817889650     1.143472064104     2.642387529966
H      1.974791899792     2.291149879770     2.115321656078
C     -0.013641025274     2.979481309504     1.665377718028
H      0.333888359800     3.919206747860     1.266959467895
C     -1.471452609386     2.912711925759     1.876083921091
O     -2.195088138531     3.733881336412     1.253485290506
O     -2.030514696703     1.948720812352     2.732549096400
C     -3.463771291614     1.915870167798     2.787224942898
H     -3.789277061144     1.115506327694     3.484926548400
H     -3.868853084643     2.885115870157     3.156812885297
H     -3.892085039594     1.692086491891     1.783902364347
Pd     0.601670184372     1.600680050463    -0.081933276757
C     -0.032503054341    -1.126926106886     1.397091690477
O     -0.715225170264    -0.053294213842     0.596239529417
O      1.282110116984    -1.029324836424     1.151881367235
C     -0.728702719065    -2.549143495927     1.292914648650
H      0.072369727856    -3.297156695834     1.291821752152
C     -1.619394275270    -2.763838347673     0.092883159993
H     -1.971902205172    -3.815538230677     0.083887440448
H     -2.503247195555    -2.099546299273     0.164257060785
H     -1.060024166734    -2.550654974312    -0.841117218247
N     -1.547666379211    -2.691986525137     2.524693806264
C     -1.229557580779    -1.704620923153     3.280917501032
O     -0.335704866584    -0.750553261078     2.833707441701
C     -1.785027579661    -1.539155213793     4.620048335810
H     -0.947509953498    -1.579580695697     5.335289759186
H     -2.279267079705    -0.555552017424     4.654137472129
H     -2.505803360013    -2.354974889995     4.811237672927
N      0.733856772261     0.784047911074    -1.979725832031
C      0.291881894404     1.502670648063    -3.056872664298
C      0.422793343149     0.992796598181    -4.330474465040
C      1.001309984589    -0.238751692064    -4.535899148099
C      1.442573817290    -0.942139406504    -3.447418850421
C      1.300350903244    -0.399188141839    -2.148205406051
H     -0.170839044485     2.470943980652    -2.906936432527
H      0.069543559261     1.567811198086    -5.170474599130
H      1.107639630623    -0.642678077265    -5.539168400229
H      1.907560904242    -1.902534741488    -3.544013847245
O      1.765071857094    -1.138554369861    -1.199399760185
H      1.546637339392    -1.059233207931     0.052646577592

