# STO-3G

title

0 1
C      0.365348835520     4.084455032622    -0.193880192431
C      1.280489215794     4.931667667146    -0.866652112814
C      0.842175958843     5.843425153893    -1.839010330657
C     -0.528736972725     5.923900770566    -2.153649130079
C     -1.445082230101     5.082264671779    -1.493496135809
C     -1.007603442194     4.168148809437    -0.522043724994
H     -2.863514614332    -1.181737028303     1.078647729372
H      2.341808321618     4.868756601321    -0.627999208045
H      1.559374438334     6.483006764202    -2.347856397214
H     -0.875854862448     6.625670726619    -2.908660852618
H     -2.501301222732     5.124936945214    -1.746567567033
H     -1.733009716928     3.509828011277    -0.055747907449
C      0.904826032796     3.211360953054     0.873079339727
H      1.910360578156     1.790634976522    -0.649862362018
H      1.952132911309     3.408777415826     1.101760189878
C      0.190847463680     2.387452288872     1.748145281951
H     -0.877375431941     2.268637317014     1.632518887631
C      0.746154066594     1.927633075221     3.031349253915
O      1.994625616582     1.772120808955     3.127145203103
O     -0.125938578327     1.481062555118     4.038474723622
C      0.495265134378     1.058935064431     5.260583107268
H     -0.289062400458     0.739016786448     5.980164104711
H      1.177673901877     0.197069508019     5.082041236995
H      1.068192538862     1.895159103696     5.721921242274
Pd     1.175874270964     0.885264221435     0.332084098245
C     -1.828137409184     0.756644280469    -0.813265717164
O     -2.604633537187     1.387808934268    -0.057610470337
O     -1.178504979799     1.294698148503    -1.840207503893
C     -1.575267870195    -0.768835085161    -0.558689981450
H     -0.524923003558    -1.000933818609    -0.742271839311
C     -2.420821223185    -1.642476478920    -1.458793257436
H     -2.214732490436    -2.710718909783    -1.239851066147
H     -3.495611446862    -1.439334973094    -1.269726224658
H     -2.186513688909    -1.436927158521    -2.523995948719
N     -1.885015156507    -1.109029908302     0.828610568013
C     -0.977680468101    -1.017666265417     1.814349339035
O      0.215299868728    -0.617157546654     1.683503091386
C     -1.430206007733    -1.447750627963     3.149803505779
H     -1.794292849025    -2.485792267391     3.067853856789
H     -0.583934949395    -1.385176169070     3.853615623874
H     -2.243590832335    -0.771392773483     3.467721909851
N      1.926786345259    -0.606935731303    -0.843675854819
C      2.857509930464    -1.443671569904    -0.291560209113
C      3.499473392077    -2.371970131496    -1.081018277131
C      3.206095727491    -2.477598467899    -2.422268786782
C      2.259689761917    -1.640883807539    -2.952546107258
C      1.610267166012    -0.692079907048    -2.128945689786
H      3.093219007965    -1.368376588589     0.764048028519
H      4.234629269348    -3.025134478806    -0.639189461265
H      3.709757043474    -3.212395919931    -3.045094225296
H      1.982685308814    -1.683894433630    -3.987499565331
O      0.715352754301     0.023153170578    -2.712195058532
H     -0.309774098920     0.748288383950    -2.220228154087

