# STO-3G

title

0 1
C      1.253650197498     2.567517770070    -0.263243618367
C      2.148711419956     1.977894894192     0.656936676377
C      3.256940541042     2.717641302847     1.117954839444
C      3.474845789645     4.035300468470     0.667272892377
C      2.576866378390     4.615442755069    -0.248156125259
C      1.463451258425     3.884344168529    -0.718161614166
H     -2.609975682305    -1.554031372318     2.354337150763
H      1.970953450145     0.965390620042     1.012930518983
H      3.945082262808     2.263268848515     1.828520808004
H      4.329203292413     4.603942384421     1.027761109903
H      2.730598833842     5.636160505263    -0.593611669950
H      0.776077629843     4.351442596864    -1.420472616629
C     -1.921028458850     2.859215338001    -0.415851783404
H     -1.647652632521     3.847555628629    -0.772832169261
H     -2.681153224582     2.315709093427    -0.966749397740
C     -1.525639134740     2.400297706045     0.842416530087
H     -1.959737751647     1.490547453700     1.227665567454
C     -0.820214643931     3.224503239444     1.842160978723
O     -0.608835608432     4.445373466401     1.610053210054
O     -0.430674719701     2.632498750155     3.055380941670
C      0.358697999035     3.457698223265     3.923314396415
H      0.618579711169     2.887359549851     4.840574298532
H      1.305949781567     3.762877341944     3.421566292536
H     -0.207380900083     4.367338695330     4.227862933974
Pd    -0.259432561961     1.428099014660    -0.877145947073
C     -2.738008293669    -0.401430138829    -0.347802815053
O     -3.684316573744     0.214441113824     0.192214404731
O     -2.033806665826     0.068005332453    -1.388423318898
C     -2.213607657052    -1.742812513061     0.263097078771
H     -1.310066082102    -2.059859788958    -0.264213132846
C     -3.241844220819    -2.849977754783     0.199136648529
H     -2.827824127303    -3.767329593797     0.666500422616
H     -4.152661323440    -2.543322604543     0.754846538347
H     -3.506604528325    -3.064813585275    -0.856431332200
N     -1.865207342456    -1.517844524948     1.670443835216
C     -0.655026100812    -0.996741491460     2.001804074254
O      0.202187991595    -0.614399400074     1.165291438607
C     -0.337193209588    -0.893777722135     3.441800032469
H      0.583191467588    -1.473648465812     3.620207369057
H     -0.170641356840     0.170134252340     3.672625159039
H     -1.162605792899    -1.294332373356     4.056286303344
N      1.055565619901     0.381456809207    -2.257711996780
C      2.283229223527     0.888507601221    -2.614776187657
C      3.154277430016     0.144972593377    -3.384444953511
C      2.814404402739    -1.116508991084    -3.808873377046
C      1.582851633584    -1.600591048272    -3.468722765625
C      0.709671849522    -0.811164359241    -2.687851095733
H      2.582327684383     1.883631681399    -2.320538759475
H      4.113333022588     0.560344218475    -3.647963782080
H      3.500642246369    -1.707585307259    -4.409645035946
H      1.249982047784    -2.570417952500    -3.780812436340
O     -0.445833069897    -1.379961931312    -2.463183155945
H     -1.210334945771    -0.760504329635    -1.978429864682

