# STO-3G

title

0 1
C     -1.397155922892     0.021275448871     1.162569947107
C     -1.591654762914    -0.056095998436     2.556145521735
C     -2.046069174722    -1.253227961358     3.144706880258
C     -2.318616168178    -2.375745292230     2.336363238622
C     -2.130801662378    -2.297946724024     0.941268664295
C     -1.665342002588    -1.103011274838     0.355482848928
H     -1.071937645272     0.954764203786     0.711805541584
H     -1.401245887119     0.816761185985     3.177189147657
H     -2.201978674964    -1.304646411719     4.219913458302
H     -2.684232625332    -3.296544631183     2.785366670615
H     -2.344678226338    -3.159129279603     0.312363127888
H     -1.505794445219    -1.048889246273    -0.719420342550
C      2.044221334473     2.976588298674    -0.009706015122
H      3.115108087856     2.848365948189    -0.158614517495
H      1.556906614307     3.729733921856    -0.618925102481
C      1.367610462056     2.445314099361     1.083704510096
H      0.335307115473     2.730895915126     1.217094334171
C      2.000403687833     1.705739142036     2.190787834518
O      3.244399972500     1.493504010833     2.158756205072
O      1.236805161039     1.411556164852     3.331839141549
C      1.906008015552     0.663589477427     4.355638719594
H      1.198381159687     0.468354324636     5.189341488829
H      2.256636206221    -0.316939282452     3.961492065825
H      2.773920274628     1.232604576697     4.758699573303
Pd     1.035556717596     1.225122089322    -1.019327109859
C     -0.136958516119     0.592512831583    -3.555863371292
O      0.497190027890    -0.003016079925    -2.516958623557
O     -0.488648849258    -0.015180629190    -4.581868710685
C     -0.362090466802     2.118036181432    -3.341757369185
H     -1.315303028018     2.365858700369    -3.824654806633
C      0.734221653025     2.937605409487    -3.988707185580
H      0.541328700270     4.017497496204    -3.824609147942
H      1.713300670506     2.675323850109    -3.538523686568
H      0.767463962473     2.736524667277    -5.080318824681
N     -0.337815887265     2.397379628886    -1.891024485444
C     -1.199929428087     3.146616002396    -1.175605826386
O     -1.161556494025     3.285547637915     0.083513194345
C     -2.257463417656     3.885407075332    -1.907717295407
H     -2.820447301312     4.499612165015    -1.180845821085
H     -1.778383434839     4.541746583616    -2.652224471045
H     -2.944359643547     3.157073940780    -2.371854506755
N      2.027807027265    -1.523654152792     1.486911754805
C      1.499654315924    -2.663214359678     2.034358925145
C      0.991657855887    -3.653914497971     1.209564298779
C      0.980541650808    -3.481153630957    -0.161338418826
C      1.504800272835    -2.320994155984    -0.671839831715
C      2.022925778302    -1.372578940634     0.228762475273
H      1.490010411959    -2.790732850417     3.110234520226
H      0.574647382516    -4.545583617409     1.645648804899
H      0.562729747615    -4.240103632700    -0.816998246458
H      1.522270521759    -2.113714749933    -1.723712063839
O      2.529379124258    -0.213652896841    -0.360139303873
H      3.259712546898     0.153581015625     0.180231882770

