# STO-3G

title

0 1
C     -2.701957493043    -1.517632627409    -1.196976427770
C     -3.784183657919    -1.777597933464    -2.061882189821
C     -4.864509913784    -2.563500961527    -1.618540294301
C     -4.862306771827    -3.090433565303    -0.310404211700
C     -3.778967711832    -2.836331531874     0.552579121675
C     -2.694382262596    -2.050996110586     0.110470808756
H     -1.860511577776    -0.920603106222    -1.546431872030
H     -3.772652798996    -1.377600788100    -3.073856234741
H     -5.698424341017    -2.766166520602    -2.285851125469
H     -5.697702055763    -3.696444798720     0.031278111562
H     -3.775453593817    -3.244827224878     1.559791451620
H     -1.847288813165    -1.865131916534     0.768025386751
C     -1.904856574583     2.246165600137    -2.168916778884
H     -2.685543112426     1.494809805012    -2.251600310625
H     -2.138926462999     3.103450967769    -1.544671800293
C     -0.752132601597     2.214714602918    -2.916008694930
H     -0.040744147266     3.022953137945    -2.852103137692
C     -0.409060006713     1.156789429703    -3.881241002036
O     -1.038195672225     0.063001194351    -3.849153396503
O      0.626266235049     1.382773060171    -4.802690607425
C      1.075305237974     0.233161923837    -5.532511520277
H      1.898056382212     0.532097746508    -6.216963933148
H      1.473172398212    -0.541107937294    -4.836995008822
H      0.250859194611    -0.198636404379    -6.143626487129
Pd    -0.383651443501     1.105795773638    -0.711369335352
C      2.176516649043    -0.029776170344    -1.291540668190
O      1.352096061113     0.981995351129    -1.688345246168
O      3.224535407197    -0.300032776831    -1.899781727157
C      1.675874226095    -0.800951253575    -0.035137256477
H      2.561666196494    -0.965610894724     0.591709345259
C      1.095080378405    -2.148110867587    -0.408332477451
H      0.723339081460    -2.663847053522     0.500045400051
H      0.252242390296    -2.012720836342    -1.114511884694
H      1.871821423390    -2.778079838316    -0.890569024555
N      0.628594771603    -0.002660842312     0.622324370825
C      0.544678899595     0.347667036108     1.928421248904
O     -0.179662506237     1.275359585215     2.379795618347
C      1.325265637592    -0.453528441747     2.905372949994
H      1.088292905254    -1.519521876446     2.754406646003
H      2.396175205661    -0.239747582501     2.761756552345
H      1.029400228020    -0.148689450147     3.926479093262
N     -4.265525296116     2.046949022885     0.877409784480
C     -4.988374091867     3.106519431973     1.356112499365
C     -4.334816914434     4.257868627884     1.764663897358
C     -2.956228933788     4.335667230368     1.709658708502
C     -2.264960522854     3.257222125548     1.218400512554
C     -2.996097486929     2.118730747958     0.826972340136
H     -6.069193921751     3.044133446009     1.405724704650
H     -4.907941520054     5.086940649359     2.145576689882
H     -2.432892011129     5.223664083871     2.054111413948
H     -1.194169324462     3.225949951467     1.203079352696
O     -2.251297877298     1.069651142977     0.360022898691
H     -2.794922326302     0.261840338044     0.203994970840

