# STO-3G

title

0 1
C      0.491947370084     2.887015675757     0.535320660343
C      0.894995533058     3.789606569901    -0.480357584872
C     -0.042602666026     4.622001730581    -1.111906594508
C     -1.402668584482     4.543566630297    -0.752775123793
C     -1.817005257678     3.633363378687     0.240801805455
C     -0.877704345530     2.816463547086     0.889462225840
H     -1.732369587204    -0.834341098676    -1.402345328196
H      1.948476388947     3.853837461106    -0.750498450277
H      0.280696155544     5.324587358808    -1.875900672163
H     -2.135800283827     5.174643544725    -1.248939764789
H     -2.869251178021     3.526753203713     0.487213099624
H     -1.224513316492     2.096740490595     1.626766236239
C      1.550780488527     2.114443702108     1.218498622586
H      2.357970960571    -0.294512287394     0.943382989386
H      2.493044354346     2.056683706830     0.674858733344
C      1.532096419393     1.742194201211     2.585257734219
H      0.658898366038     1.979188171073     3.176287053694
C      2.734961085076     1.393974990797     3.354643842266
O      3.664289893865     0.795308541658     2.749676700350
O      2.638223003647     1.345955559276     4.752951088768
C      3.812799376897     0.907876811849     5.451207056313
H      3.620346315053     0.934514577222     6.546128161261
H      4.075302570282    -0.138233894235     5.173696619373
H      4.676052804220     1.578034567249     5.236276029926
Pd     0.957835159593    -0.061757960425     1.505852915495
C     -1.322966773038    -1.187406622920     1.248913517721
O     -0.192041622870    -1.791441471242     0.864184170265
O     -1.231812493016    -0.257449291571     2.136473059832
C     -2.620666757296    -1.407722042271     0.460127077224
H     -3.456138530829    -1.019278556942     1.049256186006
C     -2.873470357273    -2.844545149698     0.064137267275
H     -3.851695807444    -2.909845098453    -0.455469039587
H     -2.084663943352    -3.184330716687    -0.638019364296
H     -2.890042930191    -3.495717184660     0.961419966158
N     -2.494897554215    -0.595688591765    -0.756731372109
C     -3.162865723228     0.582562876410    -0.872425474736
O     -3.955061137487     1.055961212003    -0.021331584730
C     -2.900696774721     1.327558855891    -2.118623798018
H     -3.136391624444     0.665443206756    -2.967675546862
H     -3.529920606875     2.232477248077    -2.129832566612
H     -1.831700412444     1.603654485963    -2.128803324593
N      0.554302903688     0.571291679740    -2.474248700849
C      1.459930268776     1.545899755373    -2.790185073877
C      2.805752111540     1.353095300918    -2.518501683766
C      3.246099793471     0.169076769827    -1.965770876229
C      2.313484327394    -0.788145319294    -1.649725682114
C      0.950575741105    -0.523820381345    -1.944192949841
H      1.119173063380     2.470671036336    -3.241013363106
H      3.510460402402     2.125412165568    -2.779764325949
H      4.305459434402    -0.003665206780    -1.793840594418
H      2.593886400441    -1.758272334089    -1.291582797862
O      0.064944362967    -1.523769605114    -1.665406290579
H      0.134416217750    -1.866579571098    -0.719992846085

