# STO-3G

title

0 1
C     -2.663925290849    -0.091492716998     0.433437675721
C     -2.688007570871    -0.594327596647     1.760768437905
C     -2.282524839520    -1.904698050654     2.028644896817
C     -1.848214940599    -2.742723502394     0.974281469391
C     -1.836010777518    -2.271164083094    -0.344982398812
C     -2.253667557974    -0.946576457223    -0.627535553258
H     -3.085129226491     0.889389378088     0.232449082704
H     -3.021816511263     0.047527474921     2.570302372615
H     -2.285366953082    -2.275755412052     3.049389171931
H     -1.518667522547    -3.755433838838     1.191073551645
H     -1.511303870252    -2.913375424971    -1.158641539294
H     -2.338899104964    -0.629401869023    -1.662978030322
C     -0.577376470970     2.764484911264    -0.934643958776
H      0.399229506167     3.130711730260    -1.229681852042
H     -0.913219840131     3.081224195623     0.050375699038
C     -1.352133577784     2.030875002350    -1.822627971993
H     -2.365943838380     1.759241572068    -1.559828718881
C     -0.995437250123     1.802147043762    -3.233905223300
O     -0.229048768595     2.617221688550    -3.815440946313
O     -1.787253403877     0.901751219024    -3.967022224045
C     -1.386906106941     0.696442718529    -5.328892177273
H     -2.059395530896    -0.049828114564    -5.803455053884
H     -1.454163867329     1.644428904961    -5.909731701636
H     -0.343741195986     0.306958829139    -5.377084422809
Pd    -0.316829007952     0.626737325936    -0.138793262097
C      1.451388984320     0.348735510814     2.044283362978
O      1.710210213399     0.329512492384     3.262145066440
O      0.411021352176    -0.326798204982     1.503344932240
C      2.283027325398     1.181474470504     1.012119558062
H      3.302334909994     0.767960152579     1.021190085442
C      2.346582410916     2.644766012296     1.392875529357
H      2.942716323236     3.202156814655     0.642226976324
H      1.322653048804     3.068712407178     1.422725430898
H      2.819360698074     2.759882997838     2.390799489225
N      1.628171312666     1.073156368532    -0.292048313385
C      2.137613646482     0.786339092275    -1.506589686969
O      1.423825202733     0.460248630023    -2.500329215895
C      3.602430556016     0.910534062472    -1.690600440291
H      3.830597073074     0.751368437694    -2.760277068123
H      3.902581973024     1.928536221096    -1.393178743749
H      4.106369492669     0.137916371620    -1.086531890386
N     -1.597775100140     2.937130948789     2.206998549856
C     -1.117273464193     2.559043077106     3.434381654052
C     -1.999920619878     2.304689300476     4.469373170893
C     -3.361383052976     2.425201997791     4.277527216282
C     -3.810073151893     2.792768585184     3.033942405343
C     -2.861263060918     3.040018253414     2.022226218056
H     -0.049735980861     2.467222555238     3.594202696274
H     -1.611920121007     2.002072858400     5.428906050828
H     -4.058509686198     2.223765341912     5.086599621227
H     -4.852150066274     2.897001725600     2.806120782464
O     -3.411719201466     3.372835129549     0.822618002683
H     -2.723650354640     3.611924599435     0.168375680495

