# STO-3G

title

0 1
C      1.120765049680     1.715045106146    -2.444237557679
C      0.621738875242     1.172387563032    -3.645564677415
C      1.496018841589     0.924215216189    -4.722217469064
C      2.869655754072     1.214316782579    -4.600191718366
C      3.369630507822     1.753929199512    -3.398353522847
C      2.494578474320     2.004332812231    -2.323078373882
H      0.453309774727     1.904924501119    -1.606694942544
H     -0.433262804849     0.929215717640    -3.741615665285
H      1.106611023118     0.508416480132    -5.648694296671
H      3.542705426262     1.024640893820    -5.433332902338
H      4.428818476700     1.980734164462    -3.301199979027
H      2.882493391236     2.417931444584    -1.395490665991
C     -2.567546547745     1.859541944363    -1.148270258637
H     -3.266071651922     1.585272248908    -1.935097074471
H     -1.753395677585     2.517486300067    -1.444604807860
C     -2.782830284138     1.559265891853     0.192131231373
H     -2.091172558528     1.954400376735     0.925422830236
C     -3.963164176588     0.847063986661     0.711307078646
O     -4.735537281053     0.260774299229    -0.092581609950
O     -4.147862428041     0.758233823413     2.100467012853
C     -5.282913244199    -0.002692624999     2.536786996867
H     -5.322590832287     0.001298726860     3.647533292179
H     -6.229291105093     0.441325000348     2.152899570976
H     -5.204602515270    -1.060376365758     2.196894154460
Pd    -1.412599931305    -0.060725433549    -0.816885950310
C      0.629007658099    -0.924706986696     0.991942824353
O      1.387041944413    -0.941129746200     1.974633895371
O     -0.399271340060    -0.030757447967     0.922304398605
C      0.791593550360    -1.916400392381    -0.226882398603
H      0.721066933690    -2.938014856651     0.174430744768
C      2.133814318735    -1.732379946931    -0.905332532487
H      2.260158494357    -2.471345052516    -1.720184527574
H      2.196900028273    -0.712556431969    -1.336408145871
H      2.954255940375    -1.867471590875    -0.169772840095
N     -0.259078873898    -1.613190060959    -1.173141175340
C     -0.770182048704    -1.963784879260    -2.329428294622
O     -1.718901033772    -1.181909986723    -2.791375809672
C     -0.345612450807    -3.154385198456    -3.077189804775
H      0.106161797324    -2.810211607483    -4.022796879793
H      0.378568163526    -3.727445408313    -2.476969125825
H     -1.243494532163    -3.764543480981    -3.278091669417
N     -0.203333664774     3.041678498889     1.318013092670
C      0.684994062244     2.415012443907     2.152589665493
C      2.029974073157     2.740763882454     2.089278445163
C      2.481672279170     3.689669138210     1.194649566086
C      1.566609907657     4.287229288455     0.363864080205
C      0.213424659739     3.912566992500     0.478598981900
H      0.333229129750     1.675878885929     2.863295206374
H      2.721068670168     2.232371350551     2.742008370113
H      3.535997129646     3.946775988484     1.141339669337
H      1.840543030295     5.024004469108    -0.364084129124
O     -0.618130587310     4.541597335437    -0.396490849875
H     -1.543376654775     4.265463475631    -0.230837835451

