# STO-3G

title

0 1
C     -1.068729637970    -0.477293620950     4.122606583198
C     -2.292142644064    -0.596114793759     4.813156270260
C     -2.552369454038     0.211540311396     5.938872005119
C     -1.583774105185     1.136047474650     6.379536288096
C     -0.356814638459     1.249636210319     5.694641884903
C     -0.098964788358     0.444449436421     4.566831405347
H     -0.874409197609    -1.107442097857     3.260717740883
H     -3.035936891050    -1.313208031043     4.474175464177
H     -3.497391652612     0.120330408851     6.470746028950
H     -1.781311432713     1.758833577353     7.249775669140
H      0.394172216108     1.958036718638     6.038359901328
H      0.843969306553     0.524183706175     4.032404808664
C     -2.452703207566    -0.357826225661     0.623594057084
H     -3.061797474225    -0.500114994495    -0.267502375772
H     -2.132716280328    -1.256820188341     1.152336414795
C     -2.257442134993     0.899564425277     1.183257775069
H     -1.726922218795     0.976930189611     2.121245767903
C     -2.876937831104     2.145282799671     0.695937887064
O     -3.550978441198     2.132637067943    -0.367332657438
O     -2.588620308962     3.346463006851     1.364220806516
C     -3.187253384895     4.529120737792     0.815373422365
H     -2.893531051395     5.408640843196     1.428069272186
H     -2.839872807154     4.701197240198    -0.228880982210
H     -4.298299438082     4.452609354832     0.827404985322
Pd    -0.457433564595     0.372513887596    -0.207159755168
C      2.087102136710    -0.008432194783     1.081322407353
O      2.920440387390    -0.166188464867     1.978525930684
O      0.733821351409    -0.086483058273     1.356708232803
C      2.475849636328     0.241232095534    -0.426241818705
H      3.018500731780    -0.656150784904    -0.760869896271
C      3.370590537168     1.453183762350    -0.571531415413
H      3.692296583554     1.564182751820    -1.625616418552
H      2.816010508437     2.363337073124    -0.262477284776
H      4.272678985779     1.340352876269     0.066182722478
N      1.256587006437     0.470863882713    -1.169332961837
C      0.782427228864     0.485864585474    -2.396436486534
O     -0.517114492352     0.597090641900    -2.504189055967
C      1.644753553991     0.370805486630    -3.579783146231
H      2.316020746541     1.244339141364    -3.600977581545
H      2.214175300122    -0.569552635479    -3.496788127927
H      1.004382011640     0.358322910712    -4.480610607529
N     -1.558452851658    -3.147223045180     1.968825774864
C     -2.518058281862    -4.044269442422     2.354749805074
C     -2.406853835555    -5.374754400059     1.991968193101
C     -1.327888775840    -5.809824739821     1.249246725130
C     -0.377614447217    -4.890846308351     0.884939894998
C     -0.542211771856    -3.549220301118     1.287973033437
H     -3.368209898995    -3.706271548265     2.935691226483
H     -3.168325519568    -6.073239431894     2.297537277612
H     -1.232054179090    -6.854101988837     0.964119425146
H      0.492712312923    -5.156376524880     0.319693480022
O      0.450155125371    -2.733971487770     0.893341443414
H      0.392949681024    -1.805192460548     1.249299891292

