# STO-3G

title

0 1
C      0.196629882991    -0.591506600640    -1.732222433132
C     -0.991203349321    -0.339367122077    -2.447346127983
C     -1.663774066460    -1.394449831343    -3.097079933052
C     -1.145424049871    -2.704016418832    -3.035798635288
C      0.048869608745    -2.956780438231    -2.329299043187
C      0.719035295095    -1.900476516773    -1.680336352386
H      0.726504682778     0.212023757407    -1.225377786924
H     -1.386992325264     0.671583126552    -2.498210729088
H     -2.582412951220    -1.194838341404    -3.642877101505
H     -1.662543242554    -3.517974320201    -3.538952639759
H      0.456957430908    -3.964417124062    -2.290349039953
H      1.644415717330    -2.088935170396    -1.138922598253
C      1.212685431622     2.919531606576     0.934753036657
H      1.879248425214     2.273150973895     0.356817842744
H      1.449075072658     3.031625669597     1.991620755346
C      0.162348563339     3.634440789614     0.380856854962
H     -0.430473584518     4.292698582364     0.999272942433
C     -0.160088842016     3.683420131597    -1.056914619813
O      0.419020840750     2.897448613757    -1.854006354852
O     -1.112050687560     4.613271666440    -1.505313134252
C     -1.555581734310     4.446874685118    -2.858974491273
H     -2.311454189106     5.225912614282    -3.096388719265
H     -0.707425850736     4.553110179499    -3.572557424249
H     -2.035601089783     3.450220169975    -2.994245602198
Pd    -0.541544317305     1.475591874575     1.052365486087
C     -3.099476889266     0.909381140384    -0.092367478626
O     -4.074035334522     0.993600967335    -0.851498786364
O     -2.248805195958     1.963952903322     0.092757768193
C     -2.773705188432    -0.413266128897     0.707068621874
H     -2.786526218156    -1.239997130574    -0.015645920099
C     -3.792984447224    -0.668326648619     1.794666470165
H     -3.560492826832    -1.619613420619     2.313712331549
H     -3.765900712621     0.162063014681     2.530076685399
H     -4.809720713435    -0.735914027784     1.353799741253
N     -1.478401208392    -0.237453688439     1.326408303818
C     -0.459828264925    -0.942728155095     1.731177788755
O      0.627557325036    -0.245056238850     2.009930508911
C     -0.487096542798    -2.405295069983     1.824484119531
H     -1.264942849486    -2.688188213745     2.552513291288
H     -0.721417158557    -2.802062950239     0.821330310427
H      0.505582938722    -2.759795423781     2.156847427831
N      2.972067540355     0.707291493887    -0.515015275751
C      3.523832541546     1.153955645126    -1.686671293529
C      4.683722386296     0.574864548010    -2.168737790314
C      5.290474458984    -0.454100178215    -1.479945754777
C      4.709642024839    -0.888880875699    -0.316710662383
C      3.520688729602    -0.268561207330     0.126689104661
H      3.052251911657     1.965119185331    -2.229274713328
H      5.109783942721     0.934636653646    -3.090484450114
H      6.202516100688    -0.912114877860    -1.852933140546
H      5.120939265182    -1.687973821542     0.265818530176
O      3.031348056577    -0.800887654477     1.251689226420
H      2.112355215384    -0.494831794063     1.540164857847

