# STO-3G

title

0 1
C     -3.426739074260    -1.103726830618    -0.231379955907
C     -4.298257908205    -0.866564147912    -1.308074330326
C     -4.046652616585    -1.467192989628    -2.561121227207
C     -2.916156128850    -2.289749688524    -2.742320885976
C     -2.044403591131    -2.532893212338    -1.663373182903
C     -2.300838587192    -1.944501544935    -0.394537042123
H     -3.613128108656    -0.637323191212     0.730079341646
H     -5.158439902797    -0.214774606303    -1.175680821986
H     -4.726791837821    -1.288696457673    -3.390730817137
H     -2.722360401432    -2.743478605121    -3.710503320954
H     -1.184890991210    -3.186844662537    -1.770828097345
H     -1.721700379147    -2.271892087052     0.462472244333
C     -1.325346120530     1.058018346679    -1.913266252979
H     -2.290592123986     0.612288792706    -2.125805597294
H     -0.566135541379     1.066193940903    -2.686243525717
C     -1.102822875939     1.837389691709    -0.784037310632
H     -0.163465475741     2.361014696157    -0.719028589256
C     -2.122298874114     2.254291656523     0.196821968857
O     -3.311929447516     1.856050055597     0.083450882337
O     -1.757454044310     3.172591640895     1.195754387811
C     -2.767799454568     3.483531221298     2.164424929123
H     -2.356878124427     4.205305013542     2.902448537534
H     -3.654286199971     3.948834315958     1.676851199566
H     -3.081539310246     2.567518552595     2.714205114732
Pd    -0.300653472117    -0.419507708757    -0.525288951687
C      1.790691390971    -2.318103969566     0.115361029071
O      2.333031949328    -3.401647954057     0.394673074007
O      0.453705380159    -2.193191352356     0.014372216083
C      2.603199053058    -1.020374030624    -0.127013779361
H      3.397678658380    -1.324434966122    -0.820976051651
C      3.260481904512    -0.558514736898     1.161042249463
H      3.738750741023     0.432170868147     1.028436076059
H      2.505725413143    -0.486552908222     1.970062814033
H      4.034089365895    -1.291211494912     1.474451320224
N      1.745764666171     0.073938805493    -0.669940459161
C      2.161503458412     0.951679652447    -1.639870957462
O      1.412049651512     1.806284053978    -2.181618958513
C      3.588206049523     0.956077584788    -2.058455149855
H      4.227286599984     1.096325135041    -1.172423543029
H      3.807595566871     0.018208896037    -2.593622734112
H      3.749416219066     1.803342358086    -2.751897933269
N     -0.534976403315     0.298912374219     2.074331089461
C     -1.389777850007    -0.187231733741     3.027601054015
C     -1.404266114216     0.369797261735     4.293288803694
C     -0.551082077205     1.406052951470     4.612209348143
C      0.306797512921     1.860949417269     3.645322826457
C      0.276508878257     1.259236311586     2.369641515038
H     -2.061871515101    -1.001505174034     2.784406047150
H     -2.084232862161    -0.017173762392     5.034544371323
H     -0.556110298703     1.847072703557     5.605372218383
H      0.996693605386     2.662192549359     3.817780969310
O      1.169387314342     1.762260919554     1.505000537433
H      1.273954943034     1.216715227773     0.664603652537

