# STO-3G

title

0 1
C      2.105681090099     2.878094435748    -0.144119435381
C      3.447163167555     2.965245605035     0.280169505447
C      4.465274729967     3.144805773399    -0.678585913666
C      4.142431703488     3.219204317658    -2.047235141733
C      2.800282050528     3.108386121149    -2.455806247284
C      1.769904243457     2.939992984365    -1.505819176301
H      1.254907023654    -0.101587758945     1.191482563692
H      3.708765700315     2.871584752256     1.332870810819
H      5.500681442686     3.211410429902    -0.353078965678
H      4.928772255161     3.347990298218    -2.786877109615
H      2.545380819037     3.140266825956    -3.512924524054
H      0.749073136279     2.813315914976    -1.847838510905
C     -0.520153961461     4.125571259237     0.578988267785
H     -0.829609631674     4.760741393152     1.404486199789
H      0.005870796412     4.608588060869    -0.236189605202
C     -1.068741401076     2.840886727804     0.389117535221
H     -0.903133539717     2.284533650491    -0.523259926158
C     -2.073146620715     2.231454530910     1.283304598623
O     -2.531288386967     1.094091477198     1.001011323038
O     -2.466806530938     2.913734700300     2.446653624748
C     -3.267761937772     2.158817685133     3.366939003553
H     -3.501684239420     2.786221530008     4.253430312662
H     -4.227217706564     1.846118161324     2.896011485414
H     -2.716608673106     1.255656355426     3.718909044362
Pd     0.907834792014     2.692883346059     1.427355799872
C      0.914809858021     0.835991730673     3.274522460682
O      1.850262257005     0.932260957287     2.322920298272
O      0.209081798262     1.870238182621     3.553572423645
C      0.530344130926    -0.555756042504     3.816651139515
H     -0.040014383034    -0.397168512011     4.737237993001
C      1.725219882687    -1.434976053712     4.119111193169
H      1.376673951504    -2.394979789976     4.553411140092
H      2.272584827103    -1.649018608938     3.177428989822
H      2.403440643037    -0.931536294283     4.837806212653
N     -0.343639565481    -1.294416231411     2.890473969489
C     -0.327430803653    -1.289194294945     1.611372731306
O      0.517891705590    -0.618090014395     0.736983961466
C     -1.326144577961    -2.132225517075     0.950061536607
H     -1.221037423426    -3.155008544343     1.348280100084
H     -2.318676647119    -1.720001036902     1.199167280305
H     -1.168933799892    -2.128754260903    -0.142303060678
N     -0.472633076184    -1.421536451705    -2.619816465389
C     -0.773304600103    -2.086479177951    -3.777286299510
C     -1.269658226128    -1.389725837268    -4.866323184289
C     -1.463111385185    -0.025031023458    -4.793390861140
C     -1.150244692122     0.614444987847    -3.621116855784
C     -0.649529542727    -0.153473447819    -2.545207612230
H     -0.622430321005    -3.157932360860    -3.837247062874
H     -1.504743880643    -1.921794517982    -5.772892916862
H     -1.853430981207     0.528121249558    -5.643249397454
H     -1.277140437878     1.668192640990    -3.489959681608
O     -0.368402415094     0.572597761716    -1.441489239226
H     -0.026138147640     0.021726063755    -0.668415416309

