# STO-3G

title

0 1
C      1.691352824515     2.788876588380     0.358857254368
C      2.882272887279     3.117307213638     1.040857685051
C      3.467057873790     4.387122114547     0.855969681614
C      2.858329605193     5.332249850638     0.006948546437
C      1.662890569441     5.004752559173    -0.660607811393
C      1.072118432859     3.735359441138    -0.481046255286
H     -0.960450899702    -1.261774022736    -0.424216843500
H      3.356644703612     2.401523424849     1.711963175509
H      4.389054159188     4.632900260492     1.378129115001
H      3.309193484127     6.311939966153    -0.130292553271
H      1.185721849265     5.729350465719    -1.316687596832
H      0.148480498993     3.495444897040    -1.005139911112
C     -0.978341029825     1.438389008979     1.177600298241
H     -1.265768870522     2.392274821837     0.744775302261
H     -1.499828376394     0.564862869171     0.794581615532
C     -0.192123347722     1.370184100501     2.348241224289
H     -0.044831929235     0.418635503348     2.842399030845
C      0.222668183444     2.551008208026     3.127243017648
O      1.028725116801     2.394987776844     4.080179970970
O     -0.184942825823     3.831264296189     2.712850980387
C      0.426928610521     4.935438693841     3.393190700346
H      0.032434065410     5.887272855146     2.977532754926
H      0.198255270398     4.907097428035     4.482714413438
H      1.530620781795     4.926782178773     3.243821374750
Pd     1.059919636278     0.912520525175     0.553503604314
C      0.487886929829    -1.988405745768     1.587141525321
O      0.504314340409    -1.176725243895     0.503163673200
O      1.090731207788    -1.716535490447     2.649744074434
C     -0.421345046166    -3.245838019958     1.456476779684
H     -0.280733492480    -3.804610967031     2.387115546925
C     -0.025063676961    -4.136960094792     0.293019328055
H     -0.647536430061    -5.055692563483     0.305398418872
H     -0.200982763570    -3.603611810621    -0.664253616384
H      1.044236324919    -4.421225653462     0.370981820250
N     -1.858557316767    -2.957474544167     1.342197988155
C     -2.456819984386    -2.143502933035     0.555734613571
O     -1.962455292765    -1.281533297588    -0.398792588582
C     -3.919936674014    -2.118928938676     0.657779352607
H     -4.178164133492    -1.839481628955     1.692947188957
H     -4.328262012350    -1.387824284805    -0.060667980133
H     -4.291021489701    -3.133739542438     0.432533709618
N     -0.026287397552    -0.512890839811    -2.545421541530
C     -0.936576722831    -0.123139394027    -3.489128937048
C     -0.734494756980     1.056127758718    -4.191193024273
C      0.381701789179     1.834633504209    -3.947895944173
C      1.268457972324     1.417037806157    -2.986475023721
C      0.998652551029     0.209776396586    -2.313765693509
H     -1.810403404504    -0.734859327990    -3.681098972678
H     -1.452884497348     1.356890435555    -4.935764025528
H      0.549455641507     2.756292008379    -4.498744320929
H      2.154902708492     1.967649131955    -2.738936008029
O      1.903311507938    -0.126821804345    -1.335002863032
H      1.585692164668    -0.962088764492    -0.871993958430

