# STO-3G

title

0 1
C      2.650453785025     2.435068281361    -0.320237237024
C      3.982718520972     2.432415869884     0.138559240546
C      5.035007376082     2.562227632548    -0.791551371263
C      4.747113375045     2.688495847309    -2.164173143802
C      3.409356703665     2.677061876249    -2.602966164132
C      2.343727082839     2.551612011546    -1.684156012488
H      1.045870442602    -0.833157127622     1.177415745534
H      4.215438401079     2.313763290154     1.197751441072
H      6.064632672815     2.557098341606    -0.441190349438
H      5.557041684922     2.784016786403    -2.883589120264
H      3.182429620110     2.753110803061    -3.664166576799
H      1.325190212302     2.499791496965    -2.054004275416
C      0.319789820403     4.036127310625     0.644074572738
H      0.102414066500     4.546738021031     1.578913799161
H      0.934959964713     4.565881789004    -0.074650138268
C     -0.434610377068     2.923814458713     0.211908508569
H     -0.341920790356     2.553255066217    -0.796442970904
C     -1.559411778467     2.334109303188     0.965605312742
O     -2.149241210822     1.324628755593     0.496197742590
O     -1.894522690315     2.855345953603     2.226503609102
C     -2.840956919843     2.089421413531     2.985790935479
H     -3.012849674542     2.583381433415     3.965825278618
H     -3.815686302602     2.020040505993     2.452363368720
H     -2.452600026919     1.062937815121     3.181845472478
Pd     1.445452720014     2.268352882431     1.244474279208
C      0.929825916908     0.422409649414     3.073219969292
O      1.771201894536     0.176699468001     2.069238835383
O      0.631805608817     1.637161014126     3.354333777319
C      0.158774282818    -0.744756176774     3.726240926356
H     -0.325608665960    -0.343675711199     4.621025349038
C      1.047614586400    -1.905768038624     4.123293736843
H      0.435533140809    -2.685613620285     4.622016524282
H      1.513501983057    -2.344030096494     3.216218504357
H      1.841235925373    -1.562910338855     4.818105462402
N     -0.907815190557    -1.265083824772     2.851199580549
C     -0.831057067627    -1.479814804786     1.591302589273
O      0.242194122731    -1.302969212283     0.730785160962
C     -2.032246949930    -2.032085606350     0.959254134310
H     -2.306369373058    -2.951235514446     1.504184172962
H     -2.829600131936    -1.275053731563     1.056727830880
H     -1.836307169090    -2.253448480939    -0.101618699185
N     -0.873376966479     1.636164201645    -2.785109012361
C     -1.722750021835     1.779674217254    -3.847757916031
C     -2.375106035154     0.675932460338    -4.369166197380
C     -2.168657964848    -0.577645896610    -3.831680958245
C     -1.308377042762    -0.698708344844    -2.770668300977
C     -0.683174570368     0.472158331053    -2.268981130980
H     -1.883617149813     2.761040074741    -4.278153067072
H     -3.042472684327     0.801656962329    -5.205238648668
H     -2.666468255634    -1.449504639939    -4.247476503327
H     -1.075139526808    -1.649121098288    -2.340121420052
O      0.189681988201     0.332707433229    -1.252428631853
H      0.088879301675    -0.444145761792    -0.622707567052

