# STO-3G

title

0 1
C      0.708434223169     3.328497633613     0.049076195814
C      1.900484135950     3.987972456542    -0.330007682392
C      1.999305102533     4.656634790872    -1.564713486203
C      0.901771711002     4.673850806314    -2.448765935690
C     -0.285228366169     4.007055331244    -2.089592442183
C     -0.378466322600     3.345080628758    -0.850970815520
H     -4.329156849438    -0.608227778344     1.037716691839
H      2.748668503444     3.991832794225     0.353452978705
H      2.921810095221     5.169563914090    -1.828428435247
H      0.969387397183     5.202512706642    -3.396682166694
H     -1.134723720138     4.000879762089    -2.768055744808
H     -1.301570291951     2.834180209600    -0.583260798420
C      0.603127886136     2.653958702925     1.406727462371
H      1.094140119817     3.293043599693     2.157404328379
H     -0.444843550122     2.578323045333     1.716014120428
C      1.226238460588     1.239625490514     1.456714303854
H      2.105139088260     1.161318993868     0.816755212061
C      1.495815616451     0.597305602520     2.761832102589
O      1.121875326075     1.143851440560     3.832330813418
O      2.172212719646    -0.633478772615     2.761777354515
C      2.396302296691    -1.223705140930     4.050424226841
H      2.934302684686    -2.188597897547     3.927173652841
H      3.020709907577    -0.557567973729     4.688686944264
H      1.430320790050    -1.427840870695     4.566619668185
Pd    -0.066491666451    -0.014060502136     0.468451279372
C     -2.331800114013    -1.907084339499    -0.702054149930
O     -1.281594468967    -1.140999028800    -0.945797029276
O     -3.031258624588    -2.518736824230    -1.542617455988
C     -2.677016853777    -1.941911541322     0.842972469066
H     -1.735194233747    -2.015530689352     1.397196060901
C     -3.575867729653    -3.094085376905     1.235631277832
H     -3.776469283674    -3.058715780065     2.326287071948
H     -4.538338827980    -3.015757887855     0.688282143805
H     -3.091406318409    -4.059043346402     0.981440550454
N     -3.342944966574    -0.693040044846     1.256334789196
C     -2.724096182790     0.361368154225     1.798058916491
O     -1.466421281568     0.502055927853     1.940541296720
C     -3.590822509482     1.449109908897     2.286533551395
H     -4.278955878939     1.021978276049     3.036116371757
H     -2.965185837926     2.234519716763     2.746047555263
H     -4.155315882990     1.855351571787     1.428922775998
N      1.441460528487     0.922838387519    -2.990238137242
C      2.260679287521     1.781668321061    -3.671841881612
C      3.581525995258     1.933089970308    -3.279977465194
C      4.073978020734     1.228185731874    -2.199900162410
C      3.224009754464     0.379591774808    -1.535153028548
C      1.892081427008     0.277538754328    -1.991183661633
H      1.873654949671     2.338889858052    -4.516753696290
H      4.219103973632     2.611342050702    -3.821323544501
H      5.109199699294     1.338230473521    -1.888901873912
H      3.543211819288    -0.221221175872    -0.708765636377
O      1.109329409927    -0.580422711333    -1.261695971493
H      0.244300557738    -0.866909253797    -1.698144027713

