# STO-3G

title

0 1
C     -2.114237140478    -3.217817701076     0.544513191591
C     -1.880745568493    -3.816890885576     1.799928166309
C     -2.931042468209    -4.469271093923     2.475448097261
C     -4.213023708079    -4.526606348886     1.894138574167
C     -4.445023631831    -3.935648572037     0.635307568962
C     -3.396360078399    -3.283266141851    -0.041650888187
H     -1.294861158423    -2.729868998109     0.020649407137
H     -0.887700492247    -3.778901445693     2.242894595519
H     -2.750014113380    -4.928718316011     3.444081372786
H     -5.023656207421    -5.030403867189     2.415556660706
H     -5.432956805903    -3.987970620408     0.183834062031
H     -3.564008694040    -2.844917951002    -1.022129605253
C     -1.620521718898     0.240100810055    -0.341553357753
H     -1.701338683964    -1.085980922816     1.738972381638
H     -2.517421149174    -0.293210373181     0.004659784083
C     -1.783117527266     1.530576607044    -0.733363513830
H     -2.761438437838     1.998607642132    -0.729040801643
C     -0.669361144645     2.391351546525    -1.158397964894
O      0.487974007912     1.899027688784    -1.267974155346
O     -0.940886949750     3.715966449150    -1.539423459812
C      0.193837034536     4.499505692172    -1.935283834649
H     -0.142217629727     5.524593177045    -2.203310154099
H      0.927675371335     4.582630662647    -1.101445454428
H      0.692779793288     4.054080341563    -2.825694559672
Pd     0.232366918896    -0.601108148601    -0.136562237754
C      2.664577193215    -2.014624083072    -0.877959216900
O      2.111819006498    -1.424187209669     0.177354876383
O      3.742591937552    -2.649303984617    -0.890155667450
C      1.874878721606    -1.827768134928    -2.226511473695
H      2.053128196083    -2.734790637522    -2.818421495766
C      2.400836388113    -0.630119188354    -2.990178847915
H      1.860288566801    -0.516637130825    -3.951003256088
H      2.251489126471     0.289930725109    -2.386349679701
H      3.484349315197    -0.755654023999    -3.197932552661
N      0.436262906945    -1.570195246967    -1.965905555464
C     -0.548867985344    -1.933798521150    -2.717864755713
O     -1.814603105422    -1.553169730663    -2.490265335444
C     -0.377975378255    -2.827959937916    -3.874382161761
H      0.309595766924    -2.354377803765    -4.594949839617
H      0.018709771255    -3.791978695147    -3.511160923462
H     -1.358309637718    -2.997578204260    -4.358584313417
N      0.356374562149     0.267186876273     1.716376324902
C      1.503267652487     0.992792078336     1.902367825522
C      1.724195670136     1.633432177039     3.106928656983
C      0.806079434964     1.528721030902     4.130252393434
C     -0.321428073211     0.779591461708     3.917348329012
C     -0.501292432957     0.142027625428     2.672157695466
H      2.222665418335     1.085762618452     1.096989435904
H      2.625793942030     2.206002493131     3.244770273310
H      0.974887665321     2.022375013654     5.083238125105
H     -1.071181196602     0.639741631509     4.668914472805
O     -1.616057173458    -0.582615384510     2.584857927898
H     -1.841027320805    -0.847675069582    -1.775241667383

