# STO-3G

title

0 1
C      3.688248698383    -0.739028333310    -2.544445429089
C      3.913816508231    -1.396724477833    -3.769344945243
C      4.922354632524    -2.376160851694    -3.860369369932
C      5.702189800987    -2.692439655722    -2.729589190413
C      5.476023387377    -2.028667719162    -1.507135160111
C      4.467016237805    -1.049905823847    -1.412114180192
H      2.900017205187     0.008683308851    -2.483134383906
H      3.310042819539    -1.138769462986    -4.635232766464
H      5.099264083850    -2.886062360214    -4.804497054445
H      6.481658452544    -3.447526414558    -2.801624578571
H      6.079160417722    -2.271012409932    -0.635360412863
H      4.280693274741    -0.537685918807    -0.471490220078
C     -0.974520264153    -0.349296816644    -3.144086867606
H      0.637959749682     0.025069355926    -3.992578966000
H     -1.695288170982     0.073539799244    -3.844932078307
C     -0.523322394447    -1.625886960322    -3.257537572285
H     -0.859881092156    -2.283959750354    -4.050206042154
C      0.424085202705    -2.219285380243    -2.302043105116
O      0.915988165743    -1.496671585652    -1.385838663091
O      0.815870923749    -3.558260177272    -2.473336363835
C      1.839501428282    -4.029777397194    -1.586636622800
H      2.059202882088    -5.094892468399    -1.812797382044
H      2.779076450112    -3.449308216478    -1.725425390698
H      1.509751962711    -3.958203232085    -0.525746375415
Pd    -0.431806686317     0.700977595130    -1.523363585885
C     -2.046390388603     0.016846092797     0.772781750984
O     -1.764489874988    -0.427628076620    -0.456385166017
O     -2.890670145819    -0.479138044720     1.546941713378
C     -1.234167126667     1.297303164090     1.245794287977
H     -1.108723867620     1.204214063316     2.332669180549
C     -1.987166454799     2.572404259312     0.944832424745
H     -1.394081435775     3.445900458521     1.285459783876
H     -2.162563079991     2.657472662191    -0.147117365062
H     -2.964651224944     2.569205442196     1.471566444657
N      0.016938900559     1.350202449459     0.483267089214
C      1.217235923553     1.222205803132     0.922974514180
O      2.270366131438     1.011905405782     0.093427962632
C      1.565558283730     1.351576693708     2.345113979673
H      2.664637263969     1.300336959963     2.455202476448
H      1.199133634272     2.328690420044     2.703218446982
H      1.101912039952     0.517888541350     2.901408041553
N      0.754481684284     2.047503361366    -2.586424867165
C      0.866716454663     3.271508362903    -1.978607873498
C      1.675835658839     4.247169314811    -2.524109329368
C      2.371659632377     4.006978438941    -3.688543926807
C      2.226797329126     2.785469347144    -4.288038165236
C      1.386577796823     1.817072610169    -3.700233540883
H      0.323523714499     3.474972420923    -1.064259869851
H      1.762941736572     5.202519239702    -2.033463244328
H      3.012805191307     4.768910734339    -4.123790816681
H      2.728708744587     2.530231302750    -5.199952124449
O      1.311141726717     0.681198078901    -4.376888871712
H      1.950715293992     0.663669088548    -0.780853261936

