# STO-3G

title

0 1
C      0.986672990323     3.493827789605    -0.351234373971
C      2.232004558224     3.368100212012    -1.052866266492
C      2.299483402590     3.579212955634    -2.456993609219
C      1.142142581283     3.895183747418    -3.174436790231
C     -0.103714825931     3.990057287867    -2.502192969705
C     -0.187011247078     3.784157116712    -1.121523590292
H     -0.488368792562    -0.898042034215     0.847810514714
H      3.154832153444     3.258371965832    -0.486504745907
H      3.261002378240     3.509384260370    -2.958454068506
H      1.193584755295     4.076178761117    -4.245033015275
H     -1.002888135024     4.233453124752    -3.062741803438
H     -1.151563026662     3.874640279004    -0.626862170257
C      1.201399620374     1.858974626487     1.376599028811
H      0.364736777877     1.310700474786     1.811604728598
H      2.146367834478     1.523785011459     1.808830945092
C      1.021935011142     3.386496226847     1.212226824792
H      1.941803848420     3.883121718540     1.522914846949
C     -0.100327222230     4.024413531498     1.970878413459
O      0.083759175266     5.133518338541     2.538359439588
O     -1.326284459142     3.343882314040     2.065501395884
C     -2.281645967280     3.888468090102     2.985237940903
H     -3.186318255218     3.241374001968     2.999787885230
H     -1.866734731282     3.910033842762     4.018545194490
H     -2.584290022133     4.916272535899     2.683054890310
Pd     1.254753282252     1.222050510275    -0.546272728738
C      1.078860449582    -1.227743885185     3.221335542159
O      1.932020184138    -1.035452129293     2.164963120808
O      1.495238260167    -1.186055237766     4.386251316745
C     -0.415942675300    -1.530172366407     2.892433388744
H     -0.989449443215    -1.249585960246     3.780213447405
C     -0.634928699494    -3.002714322455     2.612862432868
H     -1.720366501175    -3.194203329128     2.482133366430
H     -0.109787396051    -3.285922525347     1.678264841490
H     -0.259188150497    -3.616258068770     3.458102039831
N     -0.943935933739    -0.775666572199     1.755763852213
C     -1.987421381493     0.087481328399     1.892188746405
O     -2.562428362644     0.375102235425     2.968557345744
C     -2.462398581544     0.693727409050     0.628377908096
H     -3.315457300831     1.356065830331     0.857332847370
H     -1.636431593916     1.277516407111     0.196119577550
H     -2.771432636258    -0.120429628362    -0.049452209753
N      1.245316532899    -0.163304375061    -2.348108326415
C      1.378681819091    -0.367421161929    -3.692913775834
C      1.374346516717    -1.657739428157    -4.193435547463
C      1.231520171187    -2.742859080168    -3.348267862448
C      1.097480820671    -2.510865238417    -2.001998157432
C      1.108875825601    -1.178218468017    -1.544415625664
H      1.489299708388     0.479766363078    -4.360000781680
H      1.479630462754    -1.813927002412    -5.254706124491
H      1.223519935050    -3.756197247584    -3.741243546735
H      0.973331106047    -3.299757434450    -1.288856522235
O      0.973425611867    -0.939271176717    -0.248982416322
H      1.561194649914    -1.106420787089     1.232915650806

