# STO-3G

title

0 1
C      1.373615847994    -0.810746634088     1.758344969576
C      0.348931428187    -0.665376362660     2.737661434914
C      0.255035583947     0.535476096843     3.495093506498
C      1.170544281927     1.571255295399     3.276933580355
C      2.192948387409     1.429023462040     2.303829589702
C      2.295168645076     0.253799132720     1.554560018953
H      1.539184009843    -1.756059114729     1.249871138576
H     -0.288822364795    -1.512016764113     2.988447506618
H     -0.524711588544     0.636352645775     4.245578735116
H      1.095157331701     2.492113307624     3.850038885659
H      2.889723251055     2.245277556925     2.132127745916
H      3.069212085090     0.151745781730     0.799593694881
C      0.407824409971    -2.486592368941    -1.323273465768
H     -0.520782318444    -2.607609532205    -1.872260025659
H      0.459277413081    -3.029120105001    -0.382262713229
C      1.413662283031    -1.678547612206    -1.740789189953
H      2.311140699237    -1.591945167119    -1.145119018711
C      1.361397642986    -0.833774119623    -2.945441508129
O      0.315048860760    -0.812840679437    -3.651923803906
O      2.499915588183    -0.090977958141    -3.297862146743
C      2.328194125033     0.842233708069    -4.373529245205
H      3.285155868597     1.377483662132    -4.552333770273
H      2.039080719610     0.319032703601    -5.312728540957
H      1.554216291171     1.601770579412    -4.116696578268
Pd    -0.706336491524    -0.352326603098     0.578277374650
C     -0.609805395433     1.610933558459    -1.519362855897
O      0.087262524435     1.219165351521    -0.415770306867
O     -0.196070395350     2.509080985555    -2.273256912824
C     -1.967546301663     0.851893257921    -1.789334534054
H     -1.940110014223     0.486501714832    -2.826671522091
C     -3.152531157210     1.778118740454    -1.618210431280
H     -4.091392532329     1.242741307178    -1.860947259601
H     -3.197011028861     2.131010793604    -0.567121938725
H     -3.052764528659     2.652512547720    -2.295104326741
N     -2.073734551664    -0.217441123126    -0.815802115414
C     -2.686688097244    -1.370637440241    -0.659024623983
O     -2.323588609152    -2.092010407779     0.367802824783
C     -3.701993223938    -1.846202355001    -1.609820815303
H     -4.548275562704    -1.140864205362    -1.589095965265
H     -3.239945145347    -1.881808889706    -2.611101554813
H     -4.033296012352    -2.853433135998    -1.298792549971
N      3.233687432128    -3.302987647116     0.661289608789
C      4.018558664271    -3.122401661757     1.770816214410
C      4.911744657751    -4.106136432393     2.156255244945
C      5.024265342380    -5.273361154590     1.429581322070
C      4.230372176200    -5.426585589892     0.322797395850
C      3.339151921349    -4.389100766220    -0.022108164763
H      3.937696183451    -2.208231047668     2.347125229068
H      5.523026911213    -3.953395974502     3.030478336452
H      5.724919319674    -6.049520580778     1.725673784238
H      4.265438402544    -6.302761810359    -0.293008601957
O      2.617849652916    -4.646188265700    -1.131043742359
H      2.009323084911    -3.908891570297    -1.370104848300

