# STO-3G

title

0 1
C      1.679601191234    -0.445725928619    -1.597121603720
C      2.189259955274    -0.879398830381    -0.339604951066
C      2.404136399620    -2.267638409662    -0.106923884582
C      2.115148444068    -3.196653844247    -1.113275535088
C      1.616499227355    -2.762412548056    -2.371367265274
C      1.403477184907    -1.402410965652    -2.614826580555
H      1.619787093388     0.619585860654    -1.784520483460
H      2.503080822108    -0.120691399897     0.370969736335
H      2.797248731505    -2.598112620557     0.850818499364
H      2.269636514298    -4.257808837568    -0.935161648477
H      1.391046090433    -3.493482302617    -3.143303046104
H      1.019164942120    -1.070067181297    -3.576353546145
C     -0.518546787264     1.937946266125    -2.632528612600
H      0.123358088823     1.764338901934    -3.494881113594
H     -0.192715527227     2.702340319433    -1.933309682860
C     -1.648125449314     1.227213138425    -2.409061704990
H     -2.241026866846     1.434444782166    -1.528563639762
C     -2.154688622680     0.146868706635    -3.271248189314
O     -1.508411745157    -0.198023790651    -4.297891830617
O     -3.360292299304    -0.486987493469    -2.917475351255
C     -3.719715951024    -1.623960797955    -3.715144286733
H     -4.683744055146    -2.040771525500    -3.353927058525
H     -3.844575122926    -1.336009456053    -4.783942537483
H     -2.943708762387    -2.420124477152    -3.634113348054
Pd    -0.212294250480    -0.578388508858    -0.127903500305
C     -1.449383381995     1.488301452173     1.493917874264
O     -0.274668941260     1.225216537962     0.837655065725
O     -1.655993697441     2.557317847488     2.083604867638
C     -2.529923628558     0.346001902764     1.439623575042
H     -3.468528673568     0.808186047472     1.100103180538
C     -2.742121035332    -0.265889620876     2.808490215876
H     -3.558695189795    -1.013113813342     2.769506243846
H     -1.808757375782    -0.765865551350     3.140911485067
H     -3.016274242864     0.522448298566     3.540980264426
N     -2.051682082649    -0.678772794936     0.541748757034
C     -2.458652328588    -1.736573787179    -0.121374450812
O     -1.547717305841    -2.334809790575    -0.847761001427
C     -3.849683005866    -2.206936029196    -0.084668459379
H     -4.093995443773    -2.489326624513     0.951241026000
H     -4.490902421574    -1.383279008744    -0.441158487554
H     -3.939336771583    -3.081164094276    -0.753775481480
N      2.848612016721     2.270194354839    -0.560222982052
C      4.131024108623     2.321076572517    -1.037701894301
C      4.658899000082     3.520853903900    -1.480417057818
C      3.903299894352     4.674555251642    -1.440753376720
C      2.624028563953     4.596341916528    -0.955121825690
C      2.138322585927     3.346476649818    -0.512407175945
H      4.726672942516     1.416355411963    -1.074729879735
H      5.667882966961     3.548940766631    -1.856870962333
H      4.311849359533     5.620770805265    -1.785083240129
H      1.980032021190     5.450031150179    -0.888093022008
O      0.878265350477     3.384413130478    -0.066053516305
H      0.527251505694     2.520305958826     0.327950393228

