# STO-3G

title

0 1
C      1.570480236969     0.934931178796     2.074505949811
C      0.525790472322     0.495829342811     2.938405003962
C      0.789543963902    -0.491065085246     3.927917921468
C      2.076713634311    -1.025889451199     4.056222947953
C      3.120224567584    -0.585140990285     3.203918787092
C      2.871410824549     0.381647568982     2.225518193731
H      1.414547559821     1.757078773486     1.380477230838
H     -0.444788889092     0.987603730118     2.915737659522
H     -0.012388859337    -0.815201316906     4.585357537914
H      2.277982992165    -1.783194010132     4.809372284603
H      4.115747625488    -1.008399832611     3.304602517157
H      3.670158124650     0.712608883769     1.569906353539
C     -0.756138900106     2.028986843796    -1.107425154063
H     -0.395238130576     1.031025296707    -1.334235091684
H     -0.897452180281     2.247558681177    -0.051311695647
C     -1.041572788007     2.945293221565    -2.061532959605
H     -1.370461612790     3.935228016585    -1.777290274075
C     -0.953503155409     2.702961985110    -3.512108735842
O     -0.678470476675     1.550764904738    -3.943862307820
O     -1.231985569513     3.764920216041    -4.389545442136
C     -1.123710124191     3.466798831293    -5.788782555403
H     -1.359940286861     4.378265531595    -6.379208335302
H     -0.088833521944     3.144941039852    -6.046019670914
H     -1.842577622676     2.667773007703    -6.080458554557
Pd     0.146949344268    -0.574711455644     0.795773769803
C      1.357084521436    -2.546190887726    -0.891674556849
O      1.666660739937    -1.734841947667     0.157024872398
O      2.178382956627    -3.354269099225    -1.359386523293
C     -0.076983708754    -2.363596843916    -1.518562273911
H     -0.540576072797    -3.357881602893    -1.589186633583
C      0.018865223482    -1.750203436983    -2.900756058018
H     -0.991231971704    -1.611828788548    -3.334431013002
H      0.514248376043    -0.757518545264    -2.838271786848
H      0.611662081539    -2.407645107156    -3.570122892411
N     -0.815229030373    -1.461029906499    -0.661096967920
C     -2.027068659340    -1.003395908517    -0.439784417180
O     -2.146806152443    -0.126120910017     0.524109796349
C     -3.198130519525    -1.427071366811    -1.220077485690
H     -3.587291217604    -0.537007899636    -1.743274133472
H     -2.901423050271    -2.204272159224    -1.942254838878
H     -3.951107220546    -1.821451605775    -0.516025550897
N      2.637224717760     0.922876009862    -1.507241444997
C      3.605240077794    -0.017669138857    -1.743813054752
C      4.927200739590     0.261152615081    -1.438331443005
C      5.278968287686     1.477278221600    -0.890002229932
C      4.285866980352     2.393632017155    -0.654077852989
C      2.959102441812     2.049431962875    -0.988082135400
H      3.339144140777    -0.968845538295    -2.187509477526
H      5.678729418958    -0.487477791961    -1.627796976113
H      6.314122255308     1.699890410000    -0.645981513479
H      4.479243572710     3.355576669760    -0.224598927805
O      2.051622116199     3.014788899870    -0.695472580051
H      1.148753712221     2.752260300786    -0.999632419111

