# STO-3G

title

0 1
C      3.155144450249    -0.115728278687    -1.296262108328
C      3.680332555948     0.428825303551    -0.086972038139
C      4.614881308747    -0.322232855815     0.680058232903
C      5.017215566824    -1.591266220112     0.248041679740
C      4.503017356154    -2.130491437159    -0.960094419320
C      3.585625640357    -1.403103283015    -1.725926736796
H      2.500691921070     0.479182890306    -1.925302667455
H      3.441033455162     1.451775564591     0.189527989944
H      5.017650229710     0.101592559034     1.595830675421
H      5.726393442680    -2.167697911318     0.836156144405
H      4.820714756255    -3.116059408871    -1.290034343513
H      3.197996708836    -1.817615961517    -2.652699268136
C     -0.137682942492    -0.760096040130    -2.505258388972
H      0.366433555963    -1.720818665360    -2.423009341222
H     -0.875648227395    -0.540064694950    -1.740778279310
C      0.093934013768     0.134942861884    -3.495265171355
H     -0.447270642626     1.071108536405    -3.493989987975
C      1.028934389753    -0.062669401759    -4.614953980069
O      1.705247379638    -1.124585506260    -4.692528951078
O      1.166656822264     0.960688653881    -5.568866364081
C      2.121092335987     0.721358350746    -6.612663230937
H      2.141632722690     1.594775180071    -7.299430882330
H      3.143043495416     0.587051003885    -6.190676349859
H      1.843096722609    -0.180390124354    -7.204046249430
Pd     1.434696230028    -0.384276777875     0.338719030370
C     -0.538779079896     1.641654215494     0.397632710410
O      0.785185745748     1.521279609806     0.182710165823
O     -1.177873201701     2.655014534572     0.019673604824
C     -1.274144935756     0.438648280025     1.075124461335
H     -2.195991014028     0.276117863382     0.489349621735
C     -1.611101270512     0.730023749381     2.520349174161
H     -2.169391889761    -0.123655887396     2.953947441891
H     -0.674606344422     0.879030179604     3.096831271648
H     -2.238077632292     1.643607904041     2.588940688082
N     -0.373792060735    -0.700441254931     1.030074730128
C     -0.408453164390    -2.012166609863     0.965386580800
O      0.713108437116    -2.608255020808     0.661543850818
C     -1.647503028712    -2.766744725921     1.193723697732
H     -1.988519476282    -2.558062738973     2.221042477508
H     -2.389247237061    -2.429940653602     0.451950163451
H     -1.431734767053    -3.843343664013     1.067930207891
N     -3.388345395224     0.263413042828    -1.414159492841
C     -4.279311467361    -0.764561204644    -1.572187622766
C     -4.897344863676    -0.967529553159    -2.791696093340
C     -4.630575048059    -0.133473554474    -3.857221127599
C     -3.748780389487     0.897556531187    -3.667469457309
C     -3.150564481592     1.062081418495    -2.399332724174
H     -4.489854223506    -1.426149356750    -0.740422111571
H     -5.590799961724    -1.784022485242    -2.907836992732
H     -5.109479971684    -0.287460790607    -4.820548153199
H     -3.495824034959     1.586992721510    -4.448213120237
O     -2.302210100483     2.098933034280    -2.349332747201
H     -1.941378576708     2.327068097052    -1.444412253424

