# STO-3G

title

0 1
C      1.074554148410    -0.666488434495     3.387538538279
C      1.539306604958    -2.009830628633     3.504706305448
C      0.750266324073    -2.970373995938     4.200844075146
C     -0.475775054818    -2.595626638533     4.761776493393
C     -0.938751845852    -1.258786612977     4.640298235887
C     -0.175878173303    -0.301742312353     3.961103698181
H      1.701772066569     0.094557969841     2.934877557314
H      2.531599405084    -2.274847920791     3.150746648794
H      1.113308858641    -3.989851921061     4.297406573161
H     -1.079570566750    -3.328991067921     5.289793046170
H     -1.897413014706    -0.978976036843     5.068980049591
H     -0.538974847717     0.714776059179     3.846694114220
C      1.723522292602     1.502960078269     0.665879357071
H      1.419912757378     2.548339757127     0.629275531785
H      0.908652502363     0.795140237106     0.784999281660
C      3.006261783255     1.085647338662     0.565288996568
H      3.226611262414     0.027516076126     0.613106182167
C      4.166410385740     1.975101420024     0.387393443251
O      3.998878912810     3.222309667744     0.297689402194
O      5.449774554209     1.405479572839     0.324003104610
C      6.537202115194     2.323293812132     0.143896246695
H      7.493031548998     1.757387231377     0.108252235710
H      6.428296165549     2.882445635298    -0.812936636177
H      6.590720566559     3.044308022419     0.990873699468
Pd     0.595983777855    -1.749871018880     1.291210464159
C      2.391412534260    -2.433631998870    -0.822961576850
O      2.402862070083    -2.151763327278     0.516834850728
O      3.398267721308    -2.848320173217    -1.415076581417
C      1.033615158364    -2.161965445170    -1.578487890192
H      0.812774076866    -3.050259421097    -2.186362798837
C      1.151092497761    -0.948900014164    -2.478256045199
H      0.234831395969    -0.836310724413    -3.089120382782
H      1.288177001424    -0.037450523114    -1.859372481659
H      2.019627892888    -1.061597481856    -3.160631177440
N      0.016310940705    -1.903334957159    -0.581287132331
C     -1.261937618219    -1.689149491208    -0.447211024929
O     -1.673217528235    -1.436157365723     0.782411949075
C     -2.201249946083    -1.729786060554    -1.571593408471
H     -1.967412830515    -0.883812685853    -2.238235886209
H     -2.080390501469    -2.696633876478    -2.086839997359
H     -3.227624354378    -1.622032431143    -1.177257157744
N     -1.230884352729     1.465366586426    -0.869896905860
C     -0.965258502739     2.335303350967    -1.893122128797
C     -0.931013892216     3.696788076916    -1.653646684816
C     -1.167901026768     4.191376458944    -0.387710203895
C     -1.435259727278     3.298149368049     0.617302466272
C     -1.456067416815     1.919530252433     0.314488112321
H     -0.774254674106     1.952245373014    -2.888680780621
H     -0.712027938410     4.373130031645    -2.463644213759
H     -1.138935724267     5.260014788125    -0.191785824075
H     -1.624205514066     3.608107944064     1.625498055103
O     -1.690727774293     1.137453986542     1.383987752647
H     -1.750219480054     0.157962650181     1.158111140297

