# STO-3G

title

0 1
C     -0.488267049780     1.473508803181    -1.825048345071
C     -0.982726632520     0.197708297202    -2.223684391158
C     -2.382366841606    -0.064831565979    -2.183425362793
C     -3.268983449797     0.927333021142    -1.750547075787
C     -2.777931824769     2.198909566383    -1.353314375697
C     -1.405449542597     2.470663218663    -1.390291059459
H      0.562462858172     1.718139618839    -1.953168290300
H     -0.305159849405    -0.539158197167    -2.646965533938
H     -2.750590581878    -1.036724257907    -2.499832692161
H     -4.336813623704     0.727427868967    -1.719600025675
H     -3.472924891245     2.964387544254    -1.018307698672
H     -1.030576698625     3.445054563122    -1.090417237478
C      2.570515224687     2.372840078270     0.910501149681
H      3.106384386880     3.317149788037     0.838803073743
H      1.484769336122     2.427295222974     0.935002445978
C      3.196528213262     1.171209676528     0.991280023796
H      2.606856406477     0.271892272051     1.041552875262
C      4.651394591698     0.954871049043     0.965514514141
O      5.426530256059     1.934611030527     0.793656727857
O      5.145901011163    -0.327861194525     1.260040925355
C      6.564010570118    -0.494785879798     1.129220921354
H      6.834241326556    -1.545424079402     1.369582483678
H      6.889743177831    -0.283239078647     0.085229026345
H      7.109182988787     0.175912362272     1.831393534040
Pd    -0.148237166004    -0.062246021077     0.031113497617
C      1.458777752225    -2.410043283717     0.365331259326
O      0.816233900397    -1.708431594708    -0.609941077394
O      2.239233852158    -3.339542222184     0.099506317120
C      1.147519521585    -1.972660983137     1.848380070944
H      2.108653385740    -1.892242200245     2.376356755056
C      0.276646181454    -2.995491534210     2.545863980920
H      0.118923989406    -2.703561234045     3.602677239536
H     -0.706680748227    -3.055124333651     2.034782074995
H      0.764828243255    -3.992431057037     2.519084820992
N      0.432462692023    -0.714433167402     1.789396554556
C      0.102655593053     0.310823816058     2.543512134333
O     -0.517092980734     1.293684774295     1.949911967518
C      0.454358113683     0.374633558090     3.968314887234
H      0.117066660319     1.348779275514     4.365035744689
H     -0.062146955895    -0.448815428437     4.486305248120
H      1.550427247051     0.280128888962     4.059599552140
N      3.485236166123    -0.259597584543    -1.733308070630
C      3.694852076057    -1.552189451188    -2.135962198582
C      3.363211898089    -1.934886768144    -3.425506459621
C      2.802429302443    -1.029148643863    -4.302716635608
C      2.593264954642     0.254298484253    -3.865620542820
C      2.961900866200     0.581520196224    -2.544253029296
H      4.137432688562    -2.265298937396    -1.450687228379
H      3.527598529229    -2.955172163404    -3.728868773630
H      2.529538111801    -1.326763290680    -5.311361727825
H      2.156497479681     1.010824049005    -4.485103140860
O      2.677697174812     1.864762238304    -2.191781931941
H      2.879950194290     2.012943451014    -1.237747382204

