# STO-3G

title

0 1
C      1.989032229426    -0.761688753448    -1.083954874867
C      2.304100418764    -1.344450896953     0.179335515764
C      2.441971389689    -2.755739795413     0.305484052366
C      2.261196063647    -3.575307135645    -0.813768293982
C      1.952216116862    -3.003875861750    -2.077652767108
C      1.822551380680    -1.619182604113    -2.212518610549
H      1.993424929412     0.325939252054    -1.202570669643
H      2.533408392265    -0.700017328158     1.024620759309
H      2.691737621975    -3.187312670715     1.271028872761
H      2.356563526367    -4.654145795297    -0.719781930169
H      1.809627528405    -3.649158370819    -2.940717820639
H      1.588097323173    -1.189404264026    -3.183207501216
C     -1.219506958818     1.787438982743    -1.602787753129
H     -2.266118095939     1.734060674675    -1.310050182283
H     -0.591138601520     2.456083390267    -1.022218833610
C     -0.693453640095     1.056733652351    -2.611498121723
H      0.361677714738     1.149511131930    -2.819545547315
C     -1.441721616521     0.102983726292    -3.443920269715
O     -0.835917145273    -0.489571211425    -4.376628423605
O     -2.821437139543    -0.086841946274    -3.227819476760
C     -3.440470159418    -1.097878318295    -4.035206192016
H     -4.520265190415    -1.162971084424    -3.783820113686
H     -3.350004334561    -0.851212344614    -5.117591860586
H     -2.975226029078    -2.092156642835    -3.842323231988
Pd    -0.070300372037    -0.804927006968     0.092129713207
C     -1.056158682695     1.201311396192     1.927683775395
O      0.101490311991     0.845544952064     1.275620259539
O     -1.111216593307     2.169719237289     2.695774289374
C     -2.317585337201     0.310555430605     1.617618386715
H     -3.110692890469     0.994378121091     1.279899416243
C     -2.786025897395    -0.420455052367     2.858088098172
H     -3.714844135591    -0.983376734005     2.640272149044
H     -2.001182004020    -1.132051418503     3.188550084879
H     -2.991348886551     0.303803264564     3.674444710272
N     -1.952326699779    -0.665781669539     0.617702767636
C     -2.484746581659    -1.492215437788    -0.253490515041
O     -1.640867207072    -2.151145499619    -1.004229555720
C     -3.937667082092    -1.642271364200    -0.410271127180
H     -4.354879975917    -2.001795576074     0.543405853846
H     -4.348023838359    -0.656731354278    -0.686743132041
H     -4.126914014700    -2.375278534205    -1.214454850552
N      2.233219361107     2.366822358027    -1.477767466065
C      2.965254900500     2.685829155788    -2.590875437633
C      3.441456710900     3.972122184353    -2.763934118035
C      3.189160356744     4.943479972177    -1.818497708374
C      2.460105578441     4.596894658484    -0.711564454870
C      2.000836882969     3.267613737752    -0.581395364244
H      3.163387787512     1.926871371950    -3.338839166636
H      4.013070489042     4.212020399648    -3.645095071787
H      3.559893607627     5.956815271169    -1.947071257833
H      2.228727035786     5.297237901136     0.066017112209
O      1.304433280872     3.063434808937     0.538207291677
H      0.955400027665     2.140798243578     0.745482790679

