# STO-3G

title

0 1
C      0.892969575905    -0.530012796798     2.875283220875
C      1.399870904325    -1.814693690663     3.227114255072
C      0.688778122915    -2.623138011130     4.160915787367
C     -0.500975075473    -2.155347554306     4.730118373309
C     -1.008329737089    -0.877900843562     4.374450855009
C     -0.324688432635    -0.076507038706     3.452975598924
H      1.436711571627     0.140807364918     2.218767835206
H      2.367761323584    -2.144320085271     2.859503228965
H      1.083838446935    -3.599232328332     4.429431367114
H     -1.043007845743    -2.773268583628     5.441570569698
H     -1.941009687869    -0.529311052396     4.810751861653
H     -0.715631828177     0.886511606023     3.143927346050
C      3.199098495541    -0.046292251740    -0.130254538888
H      3.011771211154     0.150226000958    -1.184813969663
H      3.117914860618    -1.081985171109     0.183599371500
C      3.481841289506     0.943149161910     0.748313074690
H      3.628108772631     0.712696468517     1.795328334854
C      3.591535109932     2.370124719373     0.401079954649
O      3.491797350078     2.738222387974    -0.801353696049
O      3.820085698029     3.299800070385     1.432029035118
C      3.913184507254     4.672171677908     1.024947745327
H      4.085243188243     5.310818346597     1.917588571467
H      4.764956339528     4.818352495497     0.322521989168
H      2.970399447032     5.003801082224     0.533500959038
Pd     0.314966625358    -1.999286446071     1.053935742727
C      1.833492082496    -3.515483707060    -0.840156416623
O      1.961728398836    -2.950751067723     0.401019823253
O      2.708051823907    -4.253013246272    -1.317832012544
C      0.512137776654    -3.164652914956    -1.632108428482
H      0.070393487266    -4.118277196064    -1.954922202776
C      0.810136906115    -2.313260527534    -2.848824568445
H     -0.108150362029    -2.179911342699    -3.453313033660
H      1.179224548845    -1.316159765954    -2.530822424091
H      1.580220670287    -2.804375363989    -3.480201970077
N     -0.354889563367    -2.426031603973    -0.738576403979
C     -1.578733876345    -1.957288409212    -0.625012145762
O     -1.865985468564    -1.386664444506     0.515524420880
C     -2.567122849901    -2.060501551330    -1.705322342313
H     -2.206915262370    -1.456153044498    -2.553786115162
H     -2.665542827124    -3.123346512545    -1.980212744439
H     -3.530180214068    -1.661835514433    -1.337962511946
N      0.397395226710     2.136556205534     0.913130182859
C      0.332408573034     3.395540601513     1.448290130670
C      0.037690785151     4.478223328801     0.638048508551
C     -0.190886932527     4.298846348133    -0.711782242579
C     -0.128500127393     3.026244657674    -1.217652472882
C      0.177631770666     1.965041739165    -0.341374678224
H      0.518823065630     3.540364998701     2.505968737375
H     -0.009566446862     5.464912341129     1.067352693672
H     -0.414621717957     5.144215628529    -1.356712337232
H     -0.280109556378     2.811275207733    -2.255445985276
O      0.233167330309     0.756167521627    -0.941909596042
H      0.439845223080     0.042158789202    -0.294695431290

