# STO-3G

title

0 1
C      1.968459595401    -1.220527231057    -1.922193972085
C      2.431690799090    -1.912694963595    -0.764609155884
C      2.387395644552    -3.335598373061    -0.717712000040
C      1.883077770787    -4.052027286687    -1.808562738213
C      1.425153207915    -3.366559085553    -2.966206749247
C      1.468772989316    -1.970577436252    -3.025414762764
H      2.094135609751    -0.143723048142    -1.980557080738
H      2.916385014204    -1.354077031860     0.031776591006
H      2.753718391981    -3.855369092897     0.163311436301
H      1.840931137427    -5.137615806412    -1.773997578762
H      1.033015042080    -3.933052351436    -3.806680133565
H      1.115339444878    -1.445770718202    -3.907450829995
C      0.161180299226     1.357756431127    -3.158346920772
H      0.320069895733     1.169859924262    -4.218685749397
H      1.007248235129     1.763776171008    -2.615529932531
C     -1.017934005909     1.098485463704    -2.546602551590
H     -1.126842743394     1.300601626611    -1.487361421251
C     -2.210143213220     0.548717288509    -3.214156224095
O     -2.175381480238     0.271986508141    -4.444050309505
O     -3.398393144869     0.415326873539    -2.470399497375
C     -4.519789922357    -0.123151963130    -3.186069524814
H     -5.400589517485    -0.177865925135    -2.511704288841
H     -4.786257616360     0.526378186372    -4.051095609369
H     -4.295166640288    -1.150922862098    -3.553303783507
Pd     0.162209705305    -1.151216203338    -0.329181922679
C     -0.270918243461     0.840324362679     1.734066950610
O      0.734966129601     0.320484603790     0.964002180209
O     -0.101831652071     1.832710393491     2.457760003024
C     -1.648404943568     0.089853727751     1.636336098274
H     -2.421712636431     0.856728102299     1.484312303644
C     -1.943437934867    -0.670511706931     2.912388983453
H     -2.955420284763    -1.118002434624     2.863169170687
H     -1.195482022025    -1.479754371700     3.044697841994
H     -1.901099976089     0.015054580957     3.784933461569
N     -1.569850887875    -0.848834341994     0.538267110055
C     -2.330482637688    -1.604034880674    -0.222896980856
O     -1.712023404422    -2.263447931377    -1.167014296342
C     -3.783258309287    -1.707101855914    -0.031340791699
H     -3.970966606812    -2.159772049942     0.954775496963
H     -4.204106965457    -0.689934691927    -0.095015560467
H     -4.194922718362    -2.346545409382    -0.832618327848
N      2.718409035422     3.429795725174    -1.909269749006
C      2.864612990880     4.784880200684    -2.029279429918
C      2.646343514046     5.604947041920    -0.935679336642
C      2.287077075893     5.065555565794     0.282160017623
C      2.156885433351     3.703730269942     0.378479440015
C      2.397554667591     2.917506177580    -0.779139575118
H      3.142280175933     5.213165708423    -2.985237506260
H      2.759370229281     6.670857573523    -1.042350945182
H      2.113965156783     5.703920284141     1.144496569602
H      1.885823797475     3.234303587714     1.304270868169
O      2.264386457098     1.574334938012    -0.657790125139
H      1.753137787635     1.225073582219     0.132686928807

