# STO-3G

title

0 1
C      1.996840533543    -0.370426259620     1.359042725507
C      0.998288011402    -0.473880603104     2.371890245848
C      0.607443247654     0.683975006607     3.098910469540
C      1.206623576656     1.917056240245     2.820102539785
C      2.205700744813     2.019631824811     1.817392497224
C      2.599036935295     0.890259634453     1.094489103902
H      2.348034857159    -1.278501037726     0.879155588469
H      0.630319511817    -1.460490301750     2.644456451663
H     -0.152366480657     0.603378822658     3.871947651553
H      0.902577654206     2.805827553664     3.367223487977
H      2.657460646814     2.984758271970     1.603611173348
H      3.362031114293     0.971019441540     0.323428023441
C      2.680074360068    -2.007297521389    -1.649159225010
H      3.635036659916    -1.644467867986    -1.274299359020
H      2.422006886551    -3.033481310116    -1.408653834080
C      1.827122533115    -1.229919402892    -2.355268786021
H      0.884872783373    -1.643415407054    -2.686609529645
C      2.055557733429     0.179919642794    -2.710108499062
O      3.134459180730     0.746534334396    -2.386620039969
O      1.045375470224     0.864815139633    -3.407921053553
C      1.251160217149     2.275908774769    -3.570866694406
H      0.381089745799     2.719369977227    -4.101484102068
H      1.333635245731     2.780017606698    -2.579572045620
H      2.169170653177     2.478760017396    -4.167105333421
Pd    -0.096948812599    -0.551135093684     0.209352856153
C     -1.215777639291     1.629072814580    -1.277078454192
O     -0.337746234516     1.378065336964    -0.263225523030
O     -1.398636090507     2.776379006395    -1.716846959834
C     -1.985272980816     0.380256677917    -1.854058091348
H     -1.834213914637     0.376627711350    -2.943394498107
C     -3.466498672703     0.470503558153    -1.552783098509
H     -4.007030425069    -0.369858224031    -2.029344473465
H     -3.623761037131     0.430682701231    -0.454865421560
H     -3.877061878159     1.424535134102    -1.945635434238
N     -1.446332741884    -0.804289068403    -1.208843124071
C     -1.447577320689    -2.104624022128    -1.350733733450
O     -0.716511073444    -2.775783498453    -0.503584716019
C     -2.186761127449    -2.780615854339    -2.425111717964
H     -3.263480552657    -2.615117130526    -2.260288600994
H     -1.861711433092    -2.352671316676    -3.388255673453
H     -1.959349917387    -3.861833151476    -2.386582603285
N      1.962272692410    -3.578138706763     1.537678313930
C      2.872903038776    -3.618450964809     2.561262216297
C      3.742998106814    -4.687216867840     2.675364181883
C      3.701089534976    -5.723425814460     1.766829017306
C      2.776920460187    -5.663055359505     0.756904967285
C      1.908158936654    -4.551092449279     0.690919930068
H      2.916117906363    -2.804496727733     3.275660643545
H      4.458027055002    -4.704373900315     3.481327862015
H      4.382348400829    -6.565998807097     1.850120719570
H      2.683664623687    -6.433397985104     0.018290447627
O      1.056807616711    -4.603976555497    -0.340393861425
H      0.356066517298    -3.876159091333    -0.377450838545

