# STO-3G

title

0 1
C      1.618115937567    -1.160870281205    -1.341016989340
C      2.306704675454    -0.990407116010    -0.103187444798
C      2.906162213014    -2.112084325456     0.539558628806
C      2.809207852036    -3.381120314557    -0.041444460574
C      2.133532413344    -3.553119332010    -1.279938174191
C      1.550855341949    -2.458029150999    -1.924648750040
H      1.252541594144    -0.283408106088    -1.865690254498
H      2.471217998056     0.013461391908     0.279408604701
H      3.441710975510    -1.972800841212     1.474564210435
H      3.255505054434    -4.240829972565     0.451281354240
H      2.070179239659    -4.542210492858    -1.725588950362
H      1.049718920793    -2.582345968115    -2.881549203589
C     -1.926518385466    -0.892915363592    -2.031592182712
H     -1.496732717939    -1.851317193502    -2.312713864921
H     -2.558003374743    -0.899800089803    -1.148358397973
C     -1.699520397547     0.253779117618    -2.713165640023
H     -2.127157821316     1.185632001672    -2.369352256374
C     -0.851232219295     0.374226674562    -3.909451447954
O     -0.283815370104    -0.649427502666    -4.382714101199
O     -0.834620186906     1.600193281834    -4.595796022939
C      0.149964954546     1.715093236424    -5.631488839954
H      0.095187085363     2.730151836448    -6.078112538366
H      1.174352083054     1.579605619068    -5.213508861339
H     -0.027678898174     0.965309836472    -6.434872606204
Pd    -0.042844619041    -1.132729364606     0.424356966072
C     -1.555468851010     1.206677978951     1.231171123196
O     -0.371772074541     0.872260835357     0.634348672458
O     -1.970318104288     2.374764732521     1.263057167123
C     -2.345824593466     0.007999182420     1.871134410275
H     -3.395789609171     0.111342859912     1.561501159570
C     -2.266093318546     0.046985604450     3.382338689330
H     -2.881229562756    -0.766387489106     3.815819515068
H     -1.212120254174    -0.088685646702     3.702970850417
H     -2.642849853979     1.020679581520     3.760555817465
N     -1.741542907233    -1.221378664530     1.407685435267
C     -1.994805235425    -2.505085798039     1.283523505973
O     -1.071947766581    -3.215330093935     0.691643071430
C     -3.250571217840    -3.106946641111     1.751452799648
H     -3.308367312435    -2.976818315035     2.844164160998
H     -4.085789259580    -2.597806716167     1.243348237824
H     -3.240180859165    -4.182216904392     1.494767084941
N      1.694878680056     3.149370101362    -2.974560396569
C      1.996737788916     4.426865486891    -3.359905861148
C      1.498818978403     5.503837096324    -2.646955409367
C      0.692048277796     5.300340127210    -1.546857232645
C      0.402251904511     4.011116226498    -1.180803371840
C      0.945337136673     2.949544628346    -1.954419061787
H      2.628878305787     4.591529937918    -4.224454564094
H      1.742993892352     6.504946000540    -2.960145696231
H      0.292435432319     6.141386958867    -0.986579758771
H     -0.234404187576     3.799539747973    -0.343559304590
O      0.620878661065     1.686730039862    -1.583661055405
H      0.175755499682     1.556973886523    -0.691756478099

