# STO-3G

title

0 1
C     -0.174091188622     3.430754670398     0.743746111259
C      0.856461637794     3.002493432548     1.631002350464
C      2.173770791164     3.527479222402     1.501526977316
C      2.458996123167     4.471417523537     0.508952415040
C      1.433711022615     4.910270020172    -0.368417099704
C      0.137043394917     4.396115852184    -0.255264605498
H     -1.195679228037     3.084150471884     0.895214332476
H      0.617700990015     2.339424156416     2.457038338584
H      2.948763406197     3.194873462131     2.186826075353
H      3.464097346303     4.873099409372     0.409075259192
H      1.657096327627     5.648426034933    -1.134559261801
H     -0.642455546255     4.746222092597    -0.926502671330
C     -2.438284630974     2.151284616794    -1.888060708660
H     -1.680250289337     2.898131270355    -2.100961060333
H     -2.223655214899     1.165160931601    -2.292788080403
C     -3.559530213639     2.382775141010    -1.165313545605
H     -4.239629295409     1.567963346689    -0.955513744240
C     -3.937962328563     3.672146570204    -0.565192869500
O     -3.225454450343     4.693499965410    -0.763370507621
O     -5.132683946901     3.748218672494     0.172750778369
C     -5.428295018745     5.025176696088     0.755020015957
H     -6.385241846149     4.961026480492     1.316110796748
H     -4.626748008538     5.329829177832     1.465655161070
H     -5.538709495740     5.803571876792    -0.033841933912
Pd     0.501979068931     1.211522807084     0.016266892022
C      0.129279218462    -1.247827180684     1.427631654653
O      0.318522031655     0.084803464749     1.662693629963
O     -0.066802151472    -2.053863232898     2.351252958496
C      0.197673410744    -1.703580525019    -0.078731013919
H     -0.754090023431    -2.207752765962    -0.295432477431
C      1.348620805552    -2.660451788927    -0.308020098583
H      1.324422895931    -3.046236153075    -1.345398285646
H      2.309012415189    -2.131733064747    -0.135763826916
H      1.274471569950    -3.520265109126     0.390736155347
N      0.397215567151    -0.523007556855    -0.900206205819
C      0.335771147209    -0.129700414596    -2.153790589009
O      0.465458939588     1.149659174595    -2.373286048601
C      0.098395661521    -1.072528417389    -3.256085759634
H      0.962014802232    -1.754318936136    -3.314968757529
H     -0.831950978328    -1.624609905149    -3.042580780115
H      0.004345442342    -0.499247861032    -4.196426985132
N     -2.857373920967     1.707462641146     1.874197700781
C     -3.322058129735     2.181371639958     3.071999801055
C     -3.911226805536     1.316561086752     3.977911408430
C     -4.027461128061    -0.028095616075     3.686528993375
C     -3.562310262754    -0.472531870543     2.475758681383
C     -2.969723983869     0.458081881735     1.599644074987
H     -3.227475899343     3.235277077350     3.305979352654
H     -4.266854024528     1.696887964420     4.920777309168
H     -4.474240095204    -0.716541058598     4.398676536094
H     -3.598194813628    -1.503920130075     2.190069131383
O     -2.530342345878    -0.076888473327     0.436232937451
H     -2.102565739435     0.618224046133    -0.114632882029

