# STO-3G

title

0 1
C      3.698287147562    -0.770548121339    -0.667874115232
C      4.056248141094    -0.113397374324     0.547178077194
C      4.684150762865    -0.852598728739     1.589505447855
C      4.949634250610    -2.216508052675     1.420296051907
C      4.606409667929    -2.865539658262     0.205777174924
C      3.989422671592    -2.153403893836    -0.829130682900
H      3.287229245486    -0.200276331937    -1.495762660659
H      3.950008128770     0.965133760003     0.627395473624
H      4.962971111995    -0.347023816076     2.510071643479
H      5.423131170964    -2.781788960766     2.218672587208
H      4.821180837730    -3.923793067923     0.082171314787
H      3.727941233733    -2.647445912669    -1.760227308572
C      0.717553852353    -1.770908841468    -2.490640378256
H      0.424808526515    -2.667774414784    -3.031847830279
H      1.090640198360    -1.925042638530    -1.482282825015
C      0.602017421077    -0.525949459448    -3.006820977626
H      0.887928256387     0.339084174680    -2.423926198682
C      0.058926590230    -0.216065456552    -4.339459467975
O     -0.337686817675    -1.149064369574    -5.091574005229
O     -0.015349902114     1.128363403103    -4.741670809175
C     -0.660085678047     1.372871079445    -5.998666840339
H     -0.675316098789     2.466463525509    -6.195372328466
H     -0.110643423294     0.874456495139    -6.828805682337
H     -1.712636967552     1.009975175561    -5.978822739965
Pd     1.679686324290    -0.508402282996     0.623921510525
C      0.079684209020     1.677960932506    -0.198432631977
O      1.382446881033     1.356964957414    -0.080664058513
O     -0.281943331655     2.702930810138    -0.826427085511
C     -0.969567368397     0.701920924656     0.417555441755
H     -1.690915718711     0.493789237919    -0.396349256607
C     -1.662660789486     1.305391582798     1.619290539988
H     -2.424399403115     0.600315407202     2.007972080083
H     -0.916917531188     1.503874354938     2.416524432533
H     -2.162835051236     2.254595380212     1.334074892431
N     -0.268354796963    -0.498371543823     0.838402497309
C     -0.470576562935    -1.782436915374     1.020038638534
O      0.604817086737    -2.517491440132     1.154462433098
C     -1.808539265505    -2.389395668139     1.027837899300
H     -1.951059123203    -2.870029381514     2.010347115072
H     -2.569339929117    -1.609872885786     0.859049765025
H     -1.842900511203    -3.142620429802     0.221933965495
N     -2.383469452896     0.378377601515    -2.367418517581
C     -2.905981607231    -0.790047828257    -2.854161514642
C     -3.882172934718    -0.757535912261    -3.832402075771
C     -4.331729489147     0.445983526230    -4.333275372342
C     -3.785654050095     1.600720999577    -3.836845374894
C     -2.790431137637     1.512698182335    -2.838328414247
H     -2.552338230371    -1.738788134841    -2.467878206073
H     -4.279123581361    -1.683281516675    -4.214715409232
H     -5.094550830941     0.477509887307    -5.106471874892
H     -4.079312419486     2.571424453356    -4.181974328294
O     -2.323371566288     2.699645106310    -2.444700361655
H     -1.548018192095     2.682498256203    -1.796486585313

