# STO-3G

title

0 1
C     -3.337814813382     0.213420329190    -0.414373781153
C     -3.377601948384     0.826724969015     0.872322192863
C     -4.147889664749     0.235861713047     1.914825669918
C     -4.860844138314    -0.944397745435     1.677636056764
C     -4.829840031003    -1.550471106222     0.394520047703
C     -4.080580064684    -0.979321874881    -0.640104067433
H     -2.819933156988     0.703938220401    -1.234327010292
H     -2.902093108524     1.791472710215     1.026127039034
H     -4.179856843917     0.714198381078     2.889878069960
H     -5.442378994010    -1.399346146635     2.475081063888
H     -5.388799114157    -2.465679435513     0.217986300345
H     -4.069640874095    -1.439391512954    -1.624231498494
C     -0.776846418365    -2.002837758032    -2.166455356588
H     -0.852886313119    -2.693562610834    -1.331960519819
H     -1.701715108126    -1.510578968357    -2.460728578317
C      0.380135348909    -1.720579410322    -2.813699624497
H      0.386236968370    -0.990075860081    -3.612335235032
C      1.688073476877    -2.327539318500    -2.515551936481
O      1.802396497921    -3.163866548371    -1.578414630516
O      2.806688771248    -1.903906751280    -3.253420578803
C      4.061665437627    -2.495597945259    -2.889529929293
H      4.863311361892    -2.087407647207    -3.542289954086
H      4.320040898318    -2.257218389135    -1.833146578988
H      4.032473962510    -3.600688352647    -3.024810268614
Pd    -1.271618456391    -0.337749621247     0.748832406112
C      0.953399902782     1.384876360987     1.267444275814
O     -0.383902717988     1.442431423946     1.004421162993
O      1.631215001040     2.409069165272     1.452459090581
C      1.587319052858    -0.055773486821     1.339228481212
H      2.022436169052    -0.169474140657     2.343958093420
C      2.673372487386    -0.221164299105     0.298773198679
H      3.124903228007    -1.229329267729     0.373513338467
H      2.238169965821    -0.091298218303    -0.712627078047
H      3.465663030637     0.541007616100     0.450248290615
N      0.538176832680    -1.020755572438     1.079885621132
C      0.277948075538    -2.300836342523     1.239185062779
O     -0.945570367252    -2.681624612325     0.977561825417
C      1.285928532738    -3.251853825902     1.728920601302
H      0.806514964273    -4.241608494286     1.827017749053
H      2.095115474215    -3.302358075031     0.982954576314
H      1.658964718735    -2.898587851015     2.704538945877
N      1.014414605268     2.033099101856    -1.760075513629
C      1.802031628006     3.146502901523    -1.634215651349
C      1.365960571119     4.360794533774    -2.138996645067
C      0.129794218940     4.462675283083    -2.745547548118
C     -0.643346136513     3.332980946667    -2.839073947461
C     -0.137542584514     2.129718552051    -2.306761512814
H      2.770612133076     3.070122872000    -1.154088187343
H      1.991798328485     5.231104339062    -2.034770202845
H     -0.224106968314     5.414524504287    -3.131901142593
H     -1.618784661818     3.336657351042    -3.279852474734
O     -0.985078043182     1.071476071557    -2.407572297760
H     -0.590807496314     0.285595697912    -1.963093272969

