# STO-3G

title

0 1
C      1.556650855639     3.947044719621     0.368206213655
C      1.031881272854     4.581286997777     1.513471642674
C      1.570819313617     5.797865601273     1.969904291642
C      2.640975342355     6.399667544185     1.280750317540
C      3.166298857061     5.775823867021     0.132566193140
C      2.626472073139     4.558129464312    -0.321663420310
H     -3.056950263674    -2.310788172327     0.403029777987
H      0.202982392916     4.121614081846     2.052747099324
H      1.155298113418     6.272292451971     2.855787972241
H      3.056517023875     7.341318111892     1.631161058734
H      3.990735797121     6.236521253280    -0.406654553714
H      3.039702524841     4.083419935738    -1.209122483596
C      1.023753466900     2.612565210778    -0.119919718769
H     -0.146888488763     2.678359078909     0.053282912921
H      1.086524719238     2.495219339885    -1.202688313532
C      1.506368396875     1.339054914213     0.535251382318
H      1.892983433533     0.584464610526    -0.133712199291
C      2.019598899634     1.296898995204     1.912739402155
O      1.217435622635     1.644378961710     2.821067389672
O      3.105826145881     0.452587166581     2.190707822190
C      3.380167163240     0.217000513558     3.578651841443
H      4.266434288603    -0.447404632391     3.669790236427
H      3.602342999368     1.171345981094     4.107610771857
H      2.519322453872    -0.291752815779     4.069918571571
Pd    -0.491337674469     0.965839221669     0.719416832814
C     -0.703001989934    -1.827550294864     1.953394646050
O     -0.055879970676    -1.060339966985     1.055861350397
O     -0.194993015821    -2.801720234317     2.543257836866
C     -2.208181435276    -1.408911835427     2.140963496375
H     -2.236233464335    -0.385267022443     2.532105428708
C     -2.978208073669    -2.316745914212     3.073244100024
H     -4.028786838601    -1.968568993503     3.151412939138
H     -2.969825628590    -3.351137705543     2.671573719196
H     -2.513724951658    -2.312286742534     4.080851054458
N     -2.895118155445    -1.410228376524     0.839469402407
C     -3.104115419856    -0.299160777321     0.114818396973
O     -2.697871118917     0.861319684433     0.433077715904
C     -3.865201151543    -0.466916539283    -1.135266392681
H     -4.846420181092    -0.900560758881    -0.877270319443
H     -3.990048376203     0.517834524219    -1.617340037213
H     -3.299358478531    -1.152056246706    -1.791665481822
N      1.013235823813     0.007729442349    -2.358412882271
C      1.558684765707     0.593058831214    -3.470516091378
C      1.038563130231     0.323883615801    -4.722849273511
C     -0.019330085904    -0.548589110378    -4.867932629696
C     -0.537473878985    -1.131187301357    -3.741044161580
C      0.033909004650    -0.821688835806    -2.486629958225
H      2.389994196778     1.280189719859    -3.363077223242
H      1.473078024912     0.793330051683    -5.590243552961
H     -0.426848613162    -0.773098995187    -5.850112747470
H     -1.343754637739    -1.835960744746    -3.779904439064
O     -0.551207779292    -1.471870035596    -1.470100486967
H     -0.182872020367    -1.313222835777    -0.541775259513

