# STO-3G

title

0 1
C      1.145221761651     4.088572272486    -0.513999429674
C      2.217175471804     3.585892435888    -1.308494375706
C      2.301403566431     3.884176428792    -2.669635976634
C      1.303809697826     4.673632453138    -3.300936082117
C      0.247642815425     5.186683706000    -2.546035520260
C      0.158604993047     4.912667138554    -1.150499178558
H     -1.471919204960    -0.554820684866     1.389372667576
H      2.966845304802     2.959756972414    -0.835210434236
H      3.135618216491     3.503949155170    -3.254644328724
H      1.371315983590     4.886729957179    -4.364615789568
H     -0.507463017333     5.815958321110    -3.010482867434
H     -0.565334931324     5.473096910554    -0.564732625300
C      1.084971094685     3.804072877133     0.996867414209
H      1.673196358548     2.898516315136     1.183555430282
H      1.519982940909     4.618851769467     1.591861612211
C     -0.413415505524     3.564239992691     1.297050652414
H     -0.993364166492     4.485377531146     1.312698032490
C     -0.860810192157     2.677265964954     2.393074500287
O     -1.973625282395     2.915705082360     2.930366711816
O      0.071026905548     1.819290443458     3.000220334144
C     -0.437841541957     0.999771988862     4.062018407430
H      0.373825056333     0.343542830031     4.443952896398
H     -0.805643936885     1.626028166351     4.906225703184
H     -1.266373345261     0.350127880799     3.697376879913
Pd    -0.822384689089     2.807584564556    -0.556946384306
C     -1.671906708742     0.302359581717    -0.891628721217
O     -1.762333161614     1.110519595094     0.161326254318
O     -1.371980857636     0.756217286794    -2.044321058569
C     -1.853124290949    -1.189354935549    -0.570742715969
H     -1.239535587617    -1.788788495875    -1.250463391694
C     -3.294276821248    -1.636855709137    -0.685609640273
H     -3.357440748090    -2.725088591075    -0.476688162214
H     -3.905994628085    -1.094987702428     0.064962332097
H     -3.680322840908    -1.437263328922    -1.706175603955
N     -1.412230207752    -1.389673132260     0.811205120755
C     -0.719696118785    -2.495260887230     1.179714484436
O     -0.480187279631    -3.478822928026     0.434730228365
C     -0.266906407652    -2.512743280732     2.586185758794
H      0.261508902840    -3.463287780757     2.773222026226
H      0.412480622023    -1.657726017201     2.729385694427
H     -1.156777279835    -2.425996165335     3.232121054909
N      1.802699155073     0.537696366908    -0.333012282686
C      1.620614201455     0.158081489512    -1.637297434030
C      1.769789991082    -1.169340442531    -1.997063209911
C      2.112383306508    -2.116596548331    -1.051912012732
C      2.322719019492    -1.698518537572     0.237517991658
C      2.124452451852    -0.338516976849     0.543584088863
H      1.349593136014     0.896766574286    -2.382356020606
H      1.597494017151    -1.465333560025    -3.018378253306
H      2.209179234055    -3.165228377510    -1.320743805434
H      2.578559190174    -2.379884962207     1.022543271912
O      2.293410267270    -0.035837399688     1.856538439009
H      2.092569984536     0.913725490982     2.001911958297

