# STO-3G

title

0 1
C      0.814033273345     2.515290868587    -0.850871964556
C      1.668073143787     3.563748823915    -1.245911002434
C      1.164075225008     4.597229448712    -2.066012432492
C     -0.178759490059     4.582295837284    -2.487611762429
C     -1.023562471839     3.529269845620    -2.085254527246
C     -0.533300930002     2.490777763601    -1.266472901500
H     -0.782040866780    -0.938625021840     0.082006326662
H      2.704271778861     3.603129479249    -0.916797078879
H      1.819976004817     5.414421408738    -2.359927146615
H     -0.562267410544     5.382480788605    -3.116247748289
H     -2.063078452824     3.508692340122    -2.405898135103
H     -1.191858883285     1.684207417755    -0.951961909312
C      1.228730327083     1.456079765562     2.493690245428
H      0.254824043489     1.069504309664     2.782728310512
H      2.082593055596     0.850159932404     2.780462435355
C      1.403630384689     2.730476416477     1.998316388298
H      2.403146841688     3.114284584022     1.852050007220
C      0.323268014087     3.725140990489     1.869894140858
O      0.628291797814     4.925491817896     1.644581258997
O     -1.016277251806     3.317615704882     2.004080960148
C     -2.002550402054     4.320053514994     1.723468540721
H     -3.017082189207     3.884311851276     1.846734087303
H     -1.904425270134     5.180033026825     2.424223743913
H     -1.905772238218     4.684354911027     0.674839720679
Pd     1.422325142270     0.959420951615     0.258330612385
C      1.290616949568    -1.609116892666     2.563863260531
O      1.564814723321    -1.158498049290     1.288433143934
O      2.121720658621    -1.447534476570     3.467316112947
C     -0.135934181286    -2.175127954840     2.865711878576
H     -0.052996267433    -2.490607815615     3.910546902822
C     -0.530975091110    -3.392414819669     2.047027268537
H     -1.421296469362    -3.865682885192     2.510557905183
H     -0.805832195208    -3.104233909813     1.014735645923
H      0.297205605472    -4.129997067435     2.022222287949
N     -1.205894278168    -1.172388482575     2.821491083947
C     -1.713816421192    -0.462471792966     1.883074342751
O     -1.440885259854    -0.337039753358     0.548879617228
C     -2.810254089182     0.416443354337     2.309618657689
H     -3.606587544881    -0.221380032572     2.728532280266
H     -2.414942296514     1.094364982528     3.084691167382
H     -3.188862051357     0.997644188683     1.449727562979
N      1.662807398201    -0.047588223002    -1.560769952970
C      2.392383421556     0.467076712530    -2.600291750757
C      2.465346606525    -0.210991920373    -3.799420347689
C      1.801951270216    -1.405219414637    -3.971310918135
C      1.085737990713    -1.908416836473    -2.918902072569
C      1.032778270249    -1.192520159010    -1.702001356813
H      2.926935162386     1.400703123788    -2.479808182926
H      3.039066744538     0.206551293522    -4.610401738229
H      1.849847669816    -1.937846145441    -4.917375067754
H      0.546350108872    -2.831587827674    -2.984423275699
O      0.342326472379    -1.747080322055    -0.739685767196
H      1.013412606644    -1.561329818520     0.477226587937

