# STO-3G

title

0 1
C      0.499930729215     2.907255894996    -0.615396323040
C      1.852722313573     3.009196551873    -1.055887703747
C      2.139571899282     3.385475046095    -2.368378518999
C      1.085800760317     3.664469340733    -3.281018499852
C     -0.248215213950     3.570426339013    -2.871778551116
C     -0.555224051047     3.201891122315    -1.532026145670
H      0.294111934967     2.760064375636     0.440172988850
H      2.655821442169     2.786945044015    -0.358854386196
H      3.173240844721     3.467479887703    -2.695501071097
H      1.322663846940     3.964793980908    -4.299025549352
H     -1.055945812275     3.802615654688    -3.560495421757
H     -1.579358825757     3.265831745341    -1.172413381064
C      1.543801335213     1.698478574203     2.294167671740
H      2.109799243981     2.625685938060     2.217199270705
H      1.856258641806     0.885061442366     1.641908492340
C      0.484194902192     1.558708872770     3.124188863624
H     -0.048112715377     0.617520259807     3.151567692715
C     -0.050369718514     2.609859368578     4.001904816059
O     -1.091779210054     2.367293227996     4.668999426604
O      0.561876092472     3.876789965723     4.034636575505
C     -0.051450630832     4.847536852426     4.894220750859
H      0.517778497407     5.800350679997     4.838287406735
H     -1.099772732483     5.049979538986     4.577460706710
H     -0.044589225149     4.499781655637     5.952149943247
Pd    -0.516283443958     0.824489345464    -1.098788013190
C     -1.316589433449    -2.178737733221    -0.770542442445
O     -1.394035571300    -1.010325670381    -1.423332382441
O     -1.559045364913    -3.280593190964    -1.310500482412
C     -0.939878550697    -2.140581180020     0.767929087953
H      0.089395024629    -2.504301860662     0.859807760601
C     -1.835634407140    -3.016376698097     1.615101940879
H     -1.598335146720    -2.871299272318     2.689298721331
H     -2.901326412208    -2.783978524305     1.421885956716
H     -1.663301815347    -4.082445112164     1.356301181786
N     -0.923696982174    -0.738431100985     1.253998157900
C     -1.954395184386     0.140653271092     1.200974708696
O     -1.916736156320     1.205090198971     0.487818659686
C     -3.136398351444    -0.060874827709     2.050134346587
H     -3.979865570870    -0.356034510887     1.403462718809
H     -2.920822202709    -0.817118401086     2.821553107275
H     -3.359224502944     0.898922982644     2.552260419765
N      1.064687315466     0.144850821370    -2.095667292722
C      1.240284676541     0.101498265281    -3.446778339865
C      2.341332218721    -0.545914064678    -3.966730897252
C      3.255059473873    -1.159143133446    -3.135564111289
C      3.046651488410    -1.122248230549    -1.780047939689
C      1.905451678514    -0.466396624157    -1.258251663039
H      0.530728054672     0.593314565814    -4.101637360497
H      2.482250056481    -0.572642789632    -5.034110116984
H      4.120738876922    -1.670200866323    -3.547882810078
H      3.712047165521    -1.596495368715    -1.088700569524
O      1.732498958108    -0.493902689207     0.012181485511
H     -0.028592088890    -0.336963668380     0.914587724528

