# STO-3G

title

0 1
C      0.073060819878     3.212358509038     0.010739986119
C      0.561553353978     4.438866981450     0.526931282219
C      0.187017621736     5.662138085043    -0.051693418625
C     -0.684512882904     5.693081717922    -1.159871861874
C     -1.178210511367     4.482761846214    -1.683723310427
C     -0.803503671992     3.259776874603    -1.102336936897
H     -2.631577892690     0.502408062020     0.339711123496
H      1.234408611772     4.439134295931     1.380296915629
H      0.571570177560     6.593144242492     0.359009466575
H     -0.972312836777     6.642320360555    -1.605465919724
H     -1.849692278269     4.492851118741    -2.539560895922
H     -1.179465968763     2.325149795515    -1.518411761499
C      0.396705083833     1.890179624076     0.598135479410
H     -0.233916731461     1.085935924174     0.220571805467
H     -0.584068528255    -1.039478761369    -1.605004577346
C      1.155983755340     1.667379760500     1.767230977312
H      1.573730589123     2.491062021133     2.322791777740
C      1.166320876835     0.381227754493     2.468634750957
O      1.322600088540    -0.626594659831     1.727402079720
O      1.653752339410     0.362367794793     3.780861805518
C      1.471895584238    -0.881934975896     4.470471580153
H      1.857902561114    -0.787232671776     5.508232709837
H      0.389161344296    -1.142753167410     4.531384321235
H      2.026694894196    -1.706859745215     3.968162423737
Pd     2.332427199046     1.060497883287    -0.023660035624
C     -1.321271309229    -1.780594183949     0.075669711068
O     -0.785758566834    -2.889127371924    -0.029332656098
O     -1.275015048272    -0.820448295046    -0.925758853410
C     -2.127585070002    -1.311083639989     1.293765902255
H     -1.523890441716    -1.512004176519     2.186949669588
C     -3.431856992889    -2.069991487257     1.423735245855
H     -3.950166267252    -1.758413357991     2.354037501467
H     -4.079945668970    -1.830438395569     0.556044755163
H     -3.241770055857    -3.162881981481     1.460778284320
N     -2.434211808685     0.116124992410     1.255076169647
C     -2.241534625080     0.903299773338     2.349202227927
O     -1.750230183578     0.499694047416     3.429155454576
C     -2.629569425770     2.324677437437     2.224638809041
H     -3.385075942413     2.533132095159     2.998979835769
H     -1.725262041127     2.932140569887     2.392040552526
H     -3.039179646014     2.533921510489     1.220617603882
N      3.136199429778     0.351194225102    -1.890369218872
C      4.219154960710     0.809177414586    -2.594330239437
C      4.468504941850     0.327134723992    -3.864831181918
C      3.634233289152    -0.613908676620    -4.435675666113
C      2.561129102444    -1.055585542376    -3.705726411721
C      2.357381576155    -0.538269725475    -2.415251259999
H      4.875441110777     1.551831911535    -2.155381108852
H      5.320329640057     0.692869404548    -4.415736233138
H      3.823121037468    -0.994961089746    -5.436105343524
H      1.869556377617    -1.786228241185    -4.079603165915
O      1.286672029622    -1.008287786512    -1.755622946195
H      1.342326493322    -0.600969360402    -0.802166434175

