# STO-3G

title

0 1
C      0.152175541392     3.375263161640     0.424694112398
C      1.159941560219     4.273358991035     0.858905487065
C      1.185470453214     5.604237444971     0.404202047483
C      0.203682669394     6.080382291833    -0.485282941406
C     -0.815665275462     5.206745864905    -0.913065256915
C     -0.839757485813     3.879252338563    -0.459258490620
H     -3.736843666444     0.481083171903     1.089569099856
H      1.923814080885     3.959477564895     1.563450692870
H      1.970368444458     6.272387442026     0.752264510394
H      0.228015631871     7.110926644095    -0.831459876630
H     -1.586074078532     5.559818465214    -1.595069301469
H     -1.626681511437     3.208853365113    -0.802138721517
C      0.007431119614     1.961894007324     0.862165494402
H     -1.030666630190     1.631218856980     0.824223603359
H     -0.834794303087     0.069320685281    -0.922994834868
C      0.858270130979     1.087771407286     1.571034082091
H      0.411774914600     0.250157376981     2.086759849191
C      2.279926821639     1.308577501665     1.858960587044
O      3.006523971758     1.644444349486     0.884685518153
O      2.837749149466     0.670811220645     2.977278440500
C      4.260646783540     0.782406461489     3.121432488654
H      4.576370792937     0.260119412282     4.050684993614
H      4.785737320629     0.304874112837     2.263186574222
H      4.569288677104     1.849291387168     3.200906318200
Pd     1.051143726701     0.669120068347    -0.603638825716
C     -1.665054182460    -1.319373590698     0.226577020809
O     -0.674524171079    -2.081972917957     0.232553793829
O     -1.780574106695    -0.256642545681    -0.607647679439
C     -2.826620589462    -1.434094270224     1.230642472981
H     -2.458580414612    -2.030598803049     2.069739359776
C     -4.049425262775    -2.097722938634     0.636647921695
H     -4.838559369578    -2.175144757836     1.412976651077
H     -4.434399470673    -1.483590344164    -0.203244516361
H     -3.795681333061    -3.114204742372     0.271490182147
N     -3.205901172191    -0.110024296052     1.717158472383
C     -2.529432741220     0.436781219423     2.771264290892
O     -1.594250057178    -0.135702834166     3.374651233169
C     -2.939740918336     1.790023688378     3.203860453217
H     -3.225944462169     1.723946877439     4.266491608232
H     -2.068255224476     2.455847376462     3.083596755296
H     -3.790499286572     2.154435501231     2.602224559598
N      1.784379552791    -0.322561141899    -2.290435475548
C      2.464779708105     0.434652529139    -3.208060549754
C      3.140712881731    -0.175929542423    -4.243391134832
C      3.139629896093    -1.547883939464    -4.366578668214
C      2.450926040416    -2.280936912284    -3.436698012265
C      1.770700831655    -1.619191059884    -2.392961102686
H      2.472400618996     1.515036146410    -3.116956771245
H      3.674477079589     0.428178036268    -4.959463380000
H      3.670860280006    -2.035748755116    -5.179780195764
H      2.409186068553    -3.352035079305    -3.475269477496
O      1.148889486177    -2.445807722778    -1.571068549973
H      0.555519353948    -2.090597899913    -0.830283516729

