# STO-3G

title

0 1
C     -0.252392853965     2.877721343790    -0.541235512065
C     -0.246589444936     4.246787117812    -0.175943483836
C     -0.837672903881     5.214248260913    -1.004828196535
C     -1.448080651081     4.839537532536    -2.218933603644
C     -1.459824305204     3.482472547649    -2.595954798797
C     -0.869806581677     2.516150867997    -1.765136590224
H     -1.503311999503     1.118177709369     1.620386581110
H      0.220536082980     4.560693242122     0.753842271270
H     -0.824953959457     6.260203064196    -0.706450134046
H     -1.905866409238     5.591059627949    -2.857630283957
H     -1.926416074453     3.180481055562    -3.530870915989
H     -0.871898098089     1.469920244761    -2.070177006427
C      0.335619788661     1.805511365770     0.299850006438
H      0.006938056140     0.809426808833     0.009648737257
H     -0.027281352131    -1.865815507867    -1.070046954868
C      0.968185971373     1.994475947473     1.550865910477
H      1.053633821855     2.977502154358     1.984147474718
C      1.355242342890     0.889634653259     2.431422784752
O      2.275550157894     0.159043135101     1.968453542313
O      1.246399940146     1.080576534245     3.815564852679
C      1.542975081795    -0.079254581057     4.606195664636
H      1.387807414697     0.156422793211     5.681083558433
H      0.866303295105    -0.924493596801     4.336804878437
H      2.602060384853    -0.396414161978     4.472094794576
Pd     2.445378021961     1.366132286332    -0.059479064082
C     -1.013516755888    -1.324622492585     0.523106770845
O     -0.014573496750    -1.427438429519     1.256411693555
O     -0.966596126386    -1.655794829337    -0.811411096414
C     -2.346972580498    -0.745999928329     1.040298617829
H     -2.858706573810    -1.532244047878     1.612206705662
C     -3.273850414259    -0.219911803909    -0.033898114649
H     -4.208042105112     0.149316944676     0.437011830476
H     -2.786877025484     0.624911771820    -0.559963393512
H     -3.524301247912    -1.022674861208    -0.757122805428
N     -2.055212830492     0.342027731383     1.969612872614
C     -2.334329484792     0.203855696530     3.296891216334
O     -2.840265846545    -0.820265766498     3.807476974328
C     -2.030066702707     1.361685042427     4.165767282848
H     -2.973632046705     1.668546371352     4.645688916942
H     -1.305634716205     1.023231098541     4.923181645758
H     -1.611072425078     2.196855385125     3.578136618451
N      3.196944622440     0.347207995877    -1.789398513908
C      4.033437269231     0.871832739737    -2.740088304038
C      4.264325812005     0.180123580378    -3.912954435586
C      3.657613673464    -1.038667009922    -4.139436009932
C      2.831671222025    -1.540666489577    -3.167524541085
C      2.638714107578    -0.801517142250    -1.986673647763
H      4.506841019403     1.832531291870    -2.573128550436
H      4.919499251820     0.600432767511    -4.659215324121
H      3.829831310695    -1.585812760950    -5.062822206188
H      2.324162556787    -2.480123555522    -3.273214479136
O      1.803303356321    -1.367261500941    -1.093094642095
H      1.820126589358    -0.833755101509    -0.232532503605

