# STO-3G

title

0 1
C      2.489275837280     2.507558462925     0.899318831424
C      2.911777255586     1.331910833010     1.569264465567
C      4.264598029005     0.954872014580     1.551595495978
C      5.223036099963     1.734996860995     0.873328919723
C      4.815086742439     2.908618627303     0.210312589306
C      3.463205410533     3.289559386494     0.229265179310
H     -1.896196342855    -2.128696012526     2.058420772591
H      2.199330427210     0.716339946850     2.109061140843
H      4.573055968217     0.050180036594     2.071134012563
H      6.268362646542     1.434311891481     0.863849654293
H      5.544523096693     3.520701891701    -0.315526941095
H      3.151793412186     4.196640393837    -0.287512519227
C      1.084166289319     2.981522156803     0.891683561820
H      0.972611693574     4.036408533884     0.629501457919
H     -0.969787372106     0.563626499555    -0.384310337185
C     -0.015602056693     2.296714857466     1.428288637365
H      0.120009468432     1.332120166378     1.889107352124
C     -1.327419354427     2.915651540362     1.637054119757
O     -1.743751871575     3.687475431427     0.729513429795
O     -2.217726910546     2.317205068126     2.542414741425
C     -3.550964023163     2.845666006606     2.559026633198
H     -4.150291398251     2.305105914966     3.323533621805
H     -3.546416078608     3.927654188345     2.822320329083
H     -4.046073246129     2.703265882388     1.571680411644
Pd    -0.066274530303     2.276750478036    -0.848332701152
C     -0.005152908508    -1.123350830170     0.030944681667
O      0.981062590613    -0.894730869797    -0.704636273356
O     -1.132627203556    -0.381215673300     0.036335785592
C     -0.024083874819    -2.271879248983     1.059591318734
H      1.003824522043    -2.369168379972     1.422240688903
C     -0.456892687941    -3.586761641885     0.448347881961
H     -0.414913246454    -4.382569560846     1.220556149512
H     -1.499552385948    -3.499856007691     0.080402656395
H      0.214574113208    -3.858753341894    -0.392255992499
N     -0.904472004041    -1.968536232833     2.181066211947
C     -0.481429327687    -1.087346181749     3.129156842672
O      0.644491753098    -0.535386805378     3.111311442714
C     -1.412463262064    -0.782046137596     4.235522306266
H     -0.896576832208    -1.028942262659     5.178033198470
H     -1.635457118132     0.296409660209     4.190272736180
H     -2.339151102274    -1.374124917131     4.140877599056
N     -0.573315940746     1.908813861242    -2.838156116561
C     -1.467232772642     2.755015752344    -3.440536269430
C     -1.628008715471     2.729616635600    -4.809975012200
C     -0.901527843908     1.850770146274    -5.583736209980
C     -0.026251942091     1.005292871230    -4.954948283827
C      0.104408831340     1.057470237643    -3.551633447107
H     -2.038489551240     3.453468306240    -2.839411575517
H     -2.329062575738     3.403179295864    -5.276274414619
H     -1.023411683921     1.825223060263    -6.663578678959
H      0.561851975243     0.289555306258    -5.495767541897
O      0.962233908075     0.174437931270    -3.068764069895
H      0.995561269491     0.017113628411    -2.068135510087

