# STO-3G

title

0 1
C      1.116016691627     3.095793861681    -0.362734343622
C      2.315434711731     3.601663748867    -0.925017031783
C      2.289827869128     4.486925141487    -2.014296624659
C      1.053970458744     4.876200070756    -2.566828604561
C     -0.143887723807     4.372659917262    -2.020195398906
C     -0.121780963601     3.491166637516    -0.928295411578
H     -3.674128392976    -1.002227028526     1.813222942031
H      3.271004369343     3.298875984545    -0.495745426098
H      3.220447229475     4.876559458103    -2.420620174432
H      1.023121253162     5.563119000782    -3.409643506588
H     -1.099256125255     4.662805581539    -2.450436466900
H     -1.055016414700     3.094563109742    -0.540690429128
C      1.238839929645     2.228510961150     0.827418965989
H      1.840234186363    -0.215637400069     1.338802449395
H      2.260732357480     2.135676095943     1.192763200764
C      0.185188725649     1.831552011664     1.712886828362
H     -0.838860167584     2.069020883554     1.453767921257
C      0.403739667270     1.514737556211     3.133258408428
O      1.527477693330     1.060448757869     3.478548164493
O     -0.712299955646     1.379891238152     3.972633175272
C     -0.429378559478     1.123452574676     5.355746101181
H     -1.385929710253     1.051822597588     5.918101549786
H      0.120435121870     0.163465909289     5.482331471534
H      0.168491263460     1.953036692560     5.796997977820
Pd     0.630091766996     0.125991400321     0.472724096840
C     -2.200997186232     0.494521069359    -0.339655855722
O     -2.724476722984     1.512590745211     0.196767137442
O     -1.031321143883     0.480093687700    -0.956473822915
C     -2.871964663309    -0.909979516121    -0.173540744100
H     -2.268124464672    -1.647241640221    -0.710917694444
C     -4.297026071113    -0.951848256402    -0.678457576594
H     -4.720734800520    -1.963897995700    -0.513415023198
H     -4.907559221612    -0.209213784701    -0.123193736825
H     -4.324841055604    -0.713346682432    -1.761317172360
N     -2.874179600861    -1.267850186178     1.253764361724
C     -1.735081635168    -1.671915319150     1.857455895310
O     -0.612856184021    -1.735896629880     1.282657766961
C     -1.817964830901    -2.075440401505     3.276118901715
H     -1.453863121203    -3.113813968105     3.349634467532
H     -1.174024196556    -1.395669118363     3.854939503971
H     -2.859253574528    -2.014998424187     3.639895049826
N      1.864004320497     0.611552789978    -2.925665457855
C      2.929609066763     1.336969578631    -3.383602249340
C      4.202791032394     1.066896859278    -2.904931229648
C      4.403229083540     0.067220013358    -1.973509878462
C      3.309617098565    -0.630549138806    -1.522291413349
C      2.044582156226    -0.300328472375    -2.052697630205
H      2.773897026147     2.119569207965    -4.116988143410
H      5.037145481172     1.639651783163    -3.274322267604
H      5.400920663586    -0.159815644455    -1.607280717842
H      3.391837276748    -1.437134767566    -0.822662128088
O      1.008235348162    -1.013287708106    -1.508474295668
H      0.114864700397    -0.631164630561    -1.766714508420

