# STO-3G

title

0 1
C      2.663036018077     0.126435054498     3.498233328478
C      2.833169735971     1.520415630062     3.355772159756
C      3.862777722030     2.183052507625     4.055867311049
C      4.732028805664     1.460601914431     4.896911774336
C      4.568132597339     0.069206967447     5.034173166326
C      3.536098847502    -0.598206431589     4.339575537565
H      0.100023317841     0.827268858932     0.448097526651
H      2.180232388767     2.091832080551     2.698455491785
H      3.984732847295     3.258113798181     3.938055982990
H      5.525512106530     1.974564398452     5.434408439952
H      5.237291934096    -0.497980724397     5.678204600472
H      3.430462941304    -1.675768064955     4.456495655600
C      0.134659455868    -1.518834864448     4.300403669570
H     -0.489806740622    -2.321802171750     3.920795544296
H      0.927115900335    -1.783732688741     4.991554375885
C     -0.212386427175    -0.177732627398     4.111771101012
H      0.354294708933     0.596569915489     4.603975509196
C     -1.463671161607     0.289203310536     3.485256907705
O     -2.298428322147    -0.549058531718     3.051511747593
O     -1.702383185173     1.670012127076     3.412536386698
C     -2.820336760083     2.067898972730     2.606989013438
H     -2.902809563818     3.175958907584     2.614196045108
H     -2.679714709465     1.741176211899     1.550833559254
H     -3.769897190208     1.643943218844     3.005117684723
Pd     1.258077649580    -0.891277720266     2.494616878247
C      0.129257322309    -2.914062938520     0.476099187035
O     -0.208799356070    -2.028458951254     1.441541274361
O      1.222824520098    -3.519472562247     0.456681603697
C     -0.993101885314    -3.030897662085    -0.615031670160
H     -1.932728198390    -3.215075764574    -0.068109330853
C     -0.752794366599    -4.174299296623    -1.569066712365
H     -1.610347344732    -4.262203792751    -2.268135021843
H      0.165210655424    -3.968703007987    -2.157887997016
H     -0.633863007518    -5.126944659342    -1.013123668545
N     -1.152867628063    -1.827065405289    -1.451927795563
C     -1.239088472521    -0.617970451664    -1.047757964087
O     -1.149217452590    -0.125845564863     0.252969852752
C     -1.459189269239     0.421995044473    -2.055731773597
H     -0.611321221392     1.126801357417    -1.999447828486
H     -1.506162912844    -0.043481180736    -3.056839176037
H     -2.405867271528     0.935534861747    -1.819840730268
N      2.340970066972    -0.471187992300     0.750618605425
C      3.463927772958    -1.208116085790     0.484553438793
C      4.335329428528    -0.802748042100    -0.506554360451
C      4.077625398957     0.335846424384    -1.238827678014
C      2.933760189519     1.039150050893    -0.966595960753
C      2.060780022771     0.580015291103     0.043786226016
H      3.677099608961    -2.096574081258     1.067401153233
H      5.220791870866    -1.383333181218    -0.703907633700
H      4.760454687006     0.663315450615    -2.017919989109
H      2.663506464076     1.925181537404    -1.503145015891
O      0.968238802676     1.320499818357     0.205104307461
H     -0.956365893851    -0.940607485671     0.897052320612

