# STO-3G

title

0 1
C     -0.050036388782     3.239776333411     0.247756606791
C      0.375799234980     3.902525177329    -0.931795166324
C     -0.468788614159     4.788059084076    -1.621396353188
C     -1.776170733978     5.035602677419    -1.155298893528
C     -2.216828490504     4.392088750254     0.015954702649
C     -1.364769290385     3.507148814514     0.708363071686
H     -2.996291235933     1.648316828758    -0.148732533975
H      1.378951065642     3.703205457971    -1.302277922586
H     -0.109626385774     5.282619551296    -2.521309584473
H     -2.431763542027     5.720203020275    -1.688136562241
H     -3.213445040600     4.597264027732     0.403498494814
H     -1.719761709378     3.046696689871     1.626015672290
C      0.925136237535     2.353014420914     0.986389593977
H      3.239625256046     1.962891480380     0.123198308258
H      1.682416224366     2.974968347078     1.477548772837
C      0.332410371534     1.409490291786     2.044079278182
H     -0.243316567983     1.910939528554     2.822149672835
C      1.304316225934     0.477134171073     2.672286590951
O      2.391150667084     0.250175510796     2.053586473015
O      1.165047528908     0.141366054946     4.030368904868
C      2.146570554155    -0.760210147901     4.559028447968
H      1.914136687132    -0.967182569075     5.626152941011
H      2.130141814568    -1.728150695042     4.008752395795
H      3.165428926156    -0.315071626253     4.506420259494
Pd     2.021671248871     1.032040462989    -0.207782149345
C     -0.835704343212     0.058990790551     0.204732209507
O     -0.811621813273     0.592141020807     1.440194805827
O      0.155330429006    -0.067647983531    -0.557929160007
C     -2.270286241641    -0.345455360751    -0.187235569160
H     -2.551273257888    -1.243773697380     0.378560140936
C     -2.429582024413    -0.604192655915    -1.668910265287
H     -3.478081621467    -0.900742997670    -1.877594909226
H     -2.205213900194     0.328448782826    -2.225643215545
H     -1.747250292146    -1.415150723913    -1.994906869071
N     -3.191425559055     0.713450646900     0.198891431913
C     -4.046576248108     0.524810736824     1.244652454828
O     -4.164177767352    -0.547018949524     1.877846118820
C     -4.881131508253     1.690800707370     1.599928496816
H     -5.459969690367     1.972996699472     0.705422934432
H     -5.548951580588     1.401304429493     2.428934395023
H     -4.207583544673     2.507090448882     1.909271724753
N      3.102616947176    -0.423075549800    -1.328340943748
C      2.545231776598    -1.130593423732    -2.360309363899
C      3.301799161250    -2.072570833645    -3.030018008864
C      4.608329911476    -2.316994081200    -2.659873481583
C      5.133444683143    -1.598705493305    -1.615419714516
C      4.323099755764    -0.652756059973    -0.960746513997
H      1.520939566929    -0.940970053335    -2.660224366348
H      2.859558310897    -2.625540085354    -3.843344675878
H      5.204714705070    -3.061950051636    -3.180441503858
H      6.137150419759    -1.746834604529    -1.268533816986
O      4.911106103088    -0.013943770668     0.050129830061
H      4.251693326064     0.647514916270     0.437498923305

