# STO-3G

title

0 1
C     -0.578545087269    -2.732410697064     1.319049890697
C     -1.981040286065    -2.494467603474     1.418093504710
C     -2.465820360138    -1.487572322431     2.280682755527
C     -1.576354618045    -0.749564697055     3.071923501200
C     -0.185400862372    -1.013598168551     3.022581329750
C      0.309328000508    -1.991569502340     2.157172256711
H     -0.174655368419    -3.595709404331     0.797497000836
H     -2.706483831921    -3.105581083473     0.892289488158
H     -3.531275105792    -1.282591500601     2.324593571230
H     -1.950215207288     0.034814221987     3.723690962582
H      0.495150034285    -0.446156186078     3.651614540048
H      1.374255104674    -2.204359967730     2.124688001659
C      2.837090463506    -2.484613590309    -0.586954907544
H      3.012700174204    -2.358883492598     0.478934357006
H      2.143789050979    -3.271119815626    -0.873367821862
C      3.418126975304    -1.705366031504    -1.527729387075
H      3.180008086004    -1.871058374301    -2.568114887774
C      4.324528468787    -0.579722671828    -1.255092556708
O      4.679664482283    -0.329743889442    -0.070753188870
O      4.776286487379     0.194506949822    -2.338033073362
C      5.475638979164     1.398440424318    -1.994754270703
H      5.787384451081     1.921285951738    -2.924100307968
H      4.813720069014     2.085228542959    -1.419266769423
H      6.388866645705     1.173182907188    -1.398463030166
Pd    -0.550126229391    -1.576935855582    -0.808138479828
C     -0.183864356983     1.137620818730     0.496755219038
O     -0.983354744683     0.116349696679     0.113836149485
O     -0.655488180995     2.089536582385     1.153333513692
C      1.309472038333     1.023682761216     0.058330578209
H      1.622422460619    -0.012861545247     0.263200664647
C      2.195233193219     1.971568094983     0.829885287975
H      3.252444281788     1.824386570125     0.533451578097
H      1.901044025832     3.016165612007     0.597239806693
H      2.095565049603     1.791914208781     1.920023393449
N      1.478568430858     1.359384091750    -1.359944221863
C      1.060907317279     0.648073925845    -2.334484238846
O      0.415429802836    -0.563531757688    -2.336091385663
C      1.352249253303     1.178603402997    -3.672945675601
H      0.885203537109     2.176414833867    -3.743580423460
H      2.449302415560     1.269785012994    -3.761384095985
H      0.951083284004     0.507088164399    -4.452469546315
N     -0.451226470503    -3.387944767305    -1.933478982072
C     -1.273526565278    -4.435866904888    -1.602801386075
C     -1.192776902446    -5.634442835335    -2.278915739155
C     -0.302713402525    -5.798662161640    -3.313529592109
C      0.480909824029    -4.735118880211    -3.663676804098
C      0.363310988244    -3.515543243336    -2.962799506115
H     -1.983492405930    -4.339279655917    -0.797885791624
H     -1.838150265436    -6.450195437075    -1.993906454950
H     -0.236258276569    -6.742100128274    -3.849523914273
H      1.173126672427    -4.786553283621    -4.481194382738
O      1.117778418020    -2.560085868533    -3.421734131122
H      0.874365362305    -1.560595657771    -2.989628278433

