# STO-3G

title

0 1
C      0.290779613768     0.112936672422     2.293276420600
C      1.333383516980    -0.625576310156     1.665633447798
C      1.802684219870    -1.828753809212     2.254538429099
C      1.248984136094    -2.281647744854     3.460165963421
C      0.198554906774    -1.555380734648     4.082998569175
C     -0.278823066995    -0.374417097442     3.504227661212
H      0.041587239653     1.113336830724     1.951037407969
H      1.823583494052    -0.203848207512     0.794708737591
H      2.616983218097    -2.374467455437     1.784801554688
H      1.630813684780    -3.184815062967     3.930927888384
H     -0.219236792275    -1.907622244777     5.023445601345
H     -1.065364410482     0.198101197370     3.989974460352
C     -2.671940286042     2.061775763385     1.838729038934
H     -2.552400324060     2.298571263440     2.894727606061
H     -3.260676137586     1.179216655915     1.608371196088
C     -2.143563032449     2.819733794881     0.849565471137
H     -2.278598953172     2.525681690467    -0.181879865368
C     -1.356215394521     4.045218648349     1.062380277567
O     -1.058071900291     4.408631945134     2.232904115913
O     -0.920531009676     4.772232327001    -0.059465384891
C     -0.175171377566     5.966324207485     0.216983434476
H      0.107498415935     6.453721267483    -0.740994310497
H     -0.787572578865     6.686865752996     0.805433751180
H      0.757797295005     5.730125112699     0.777373555774
Pd    -0.905229105509    -0.327112942351     0.217993005218
C     -2.260356886399     0.082821873655    -2.527760504321
O     -2.330875443487     0.167275931571    -1.161785697947
O     -3.300397300456     0.086636895358    -3.205648248717
C     -0.846380843416     0.030711373274    -3.163551783879
H     -1.044043173197     0.081875834734    -4.239558115789
C     -0.131366584445    -1.283280427054    -2.884414710213
H      0.800172675437    -1.324577963255    -3.486984662694
H      0.140545981222    -1.355656330729    -1.815479403422
H     -0.777753798117    -2.140864422870    -3.165679779551
N      0.047774749693     1.139881596282    -2.840446518671
C      0.507089514567     1.526216176469    -1.707207173427
O      0.345110922607     1.072022755944    -0.438496347398
C      1.450187970504     2.655357356955    -1.760556121831
H      2.418620275157     2.309843941647    -1.364599566758
H      1.562299077210     2.995447372194    -2.806731718033
H      1.044706536777     3.471994528994    -1.142051337203
N     -2.202310262789    -1.747417844052     0.991184980562
C     -1.677831807114    -2.844150613421     1.620740257600
C     -2.504783931164    -3.721773206837     2.290427374751
C     -3.865124942860    -3.511655893370     2.328870582427
C     -4.372868723235    -2.426898904406     1.665371066405
C     -3.500271762008    -1.559790960768     0.975357709314
H     -0.614265952740    -3.030370267166     1.581215368374
H     -2.077810150355    -4.576543223555     2.788882802767
H     -4.520738657044    -4.198226670980     2.858125915684
H     -5.424590419423    -2.220626686162     1.631867949066
O     -4.091650035387    -0.577826062555     0.339024186848
H     -3.462978958584    -0.117032484444    -0.391046967819

