# STO-3G

title

0 1
C      0.398618506826    -1.937692196238    -0.590622099155
C     -0.246026207918    -2.340890367955     0.613334069944
C     -0.979214896333    -3.554416245794     0.651455888064
C     -1.047958400926    -4.367845914316    -0.488803894543
C     -0.419906315826    -3.963193086355    -1.697424783222
C      0.286637018197    -2.756499885943    -1.752324940407
H      1.113393975024    -1.119114412612    -0.579077636072
H     -0.090083694312    -1.753831656315     1.513080283012
H     -1.453566109727    -3.866570295413     1.578283360255
H     -1.577382172469    -5.317376943607    -0.449723612830
H     -0.473423982709    -4.602052918183    -2.576201419968
H      0.780409666124    -2.452736289530    -2.672102700214
C      1.015942732530     1.142501837448    -2.657805848694
H      0.467890291671     0.861688943133    -3.557015973102
H      0.538532712516     1.882995012521    -2.024092102737
C      2.221752455301     0.630450042759    -2.314451194263
H      2.680101980586     0.954454994691    -1.390767944360
C      2.969371407721    -0.368058401425    -3.097197977755
O      2.448942508966    -0.879664094402    -4.126657176321
O      4.209280972183    -0.816336484210    -2.609749824177
C      4.856043352549    -1.837751241711    -3.381541715969
H      5.822442713885    -2.103907827990    -2.901714151393
H      4.226987537213    -2.755519278640    -3.428263189809
H      5.067108944888    -1.479136884922    -4.414503931977
Pd    -0.996024031331     0.030229178891    -0.430177365510
C      0.893762708406     1.671016887225     1.139595146190
O      0.223295791613     0.487949146935     1.097746214768
O      2.053779164542     1.812563881926     0.696790816378
C      0.177561318006     2.845778016001     1.880800135805
H      0.806964334943     3.733803530827     1.724590002124
C      0.102147234937     2.587106374812     3.369613382096
H     -0.300835901052     3.484566302157     3.884038898912
H     -0.579968124687     1.733264434016     3.557667015479
H      1.109452683658     2.358726191787     3.775513152286
N     -1.177273968464     3.201396160084     1.466731040458
C     -1.784265850284     2.858569200259     0.404635838975
O     -1.311834333095     2.062134578478    -0.619276962089
C     -3.139189897900     3.388846182787     0.196557112695
H     -3.832771527591     2.537155473690     0.103548432322
H     -3.419030213524     4.015977035103     1.063923794947
H     -3.136565596399     3.998498035870    -0.723759447719
N     -2.322699897430    -0.376809137926    -1.956451273891
C     -2.864052908278    -1.631122966733    -2.041587906588
C     -3.643105060564    -1.979022862032    -3.125080219624
C     -3.887529549457    -1.073248274281    -4.132385084111
C     -3.366292470570     0.187135451260    -4.012231747239
C     -2.584105012289     0.515601392455    -2.884895314550
H     -2.700310317589    -2.342963450853    -1.246963981940
H     -4.055138445619    -2.973182932905    -3.183053238954
H     -4.492976750758    -1.346328109296    -4.992722843158
H     -3.535606475713     0.944542239753    -4.751672156738
O     -2.170910386343     1.755615340662    -2.848774320106
H     -1.761435690317     2.043363060248    -1.879141991611

