# STO-3G

title

0 1
C     -0.135129705723     3.479953072619     0.496350202708
C      0.978229685781     4.176451427464    -0.074018068941
C      0.783667937691     5.103896897426    -1.132007171941
C     -0.505402053128     5.347880134223    -1.622154861022
C     -1.616362447949     4.660008030405    -1.070427306365
C     -1.435191724397     3.735147565964    -0.038079231497
H     -4.503007755209     0.191838873475     0.834391798372
H      1.962916879769     4.087222578309     0.380682639450
H      1.640546034091     5.631154797144    -1.543006084896
H     -0.655798708350     6.062166490445    -2.427610722065
H     -2.612718276247     4.839334500950    -1.465166824355
H     -2.280896029864     3.181832263225     0.356473864083
C      0.071493573987     2.556781554889     1.714668483264
H      0.666988036638     3.070594277549     2.476634148710
H     -0.884864933200     2.271555951972     2.151510476095
C      0.761800955584     1.281185943703     1.192507415032
H      0.139193670053     0.395957667653     1.219780707223
C      2.171466394781     0.985544847477     1.506861898572
O      3.023037619033     1.896924010630     1.334191371064
O      2.560424783219    -0.354875475518     1.639702781559
C      3.966141552849    -0.595261314593     1.789289513445
H      4.140900868880    -1.689248902364     1.878891482370
H      4.528299939031    -0.231381642206     0.900280005530
H      4.357682477296    -0.101084971716     2.706709292493
Pd     0.737776647336     1.835800823498    -0.795959051675
C     -1.844166377024    -0.514743557911    -0.315809224993
O     -0.779509710373    -1.285382816697    -0.514809871553
O     -2.019238364919     0.638193863766    -0.789317425311
C     -2.860354356554    -1.163266701189     0.660455038771
H     -2.274754681734    -1.690551192345     1.419199116363
C     -3.780354363317    -2.149562333488    -0.025513665962
H     -4.467306534989    -2.595286194120     0.723268044774
H     -4.380725042908    -1.623440717004    -0.795560632039
H     -3.187799016500    -2.957223200397    -0.503026715494
N     -3.673686684346    -0.140654357406     1.308698754678
C     -3.144924555224     0.608172408484     2.307344927039
O     -1.987033760821     0.460650757850     2.773135085768
C     -4.026851857417     1.657788553070     2.859035658657
H     -4.937225648641     1.164238684888     3.239079817768
H     -3.494425112512     2.173801532706     3.676367222515
H     -4.274489642620     2.362880647362     2.047028602238
N      2.540252381083    -1.848009321305    -1.467741831804
C      3.803712163402    -2.349988543323    -1.618091189738
C      4.855503825510    -1.499835389183    -1.915794173393
C      4.637006831719    -0.147696131492    -2.080019815840
C      3.359638385297     0.329583734229    -1.927787026055
C      2.327090078746    -0.590435519451    -1.614869210953
H      3.978392648567    -3.412399892813    -1.495265281738
H      5.846563031247    -1.905913433952    -2.032910469117
H      5.456907914425     0.521959732046    -2.325928128255
H      3.128660673713     1.363184574912    -2.062689715513
O      1.094433262500    -0.057031409697    -1.494704812557
H      0.060095737393    -0.838234706556    -1.034083140793

