# STO-3G

title

0 1
C      0.412190996566     2.959570938021     0.211754267946
C      1.667520940254     3.498478775719    -0.150502618685
C      1.785630745678     4.864803117601    -0.476930671773
C      0.653020663165     5.701716169691    -0.452057462238
C     -0.598409452336     5.164639061412    -0.097082121034
C     -0.722949990086     3.798165066599     0.235207323974
H     -1.829970247086     0.134418724288     0.076571083020
H      2.553760299000     2.865735349232    -0.175846944404
H      2.759200021604     5.268474348172    -0.748164115665
H      0.744907247313     6.755489615616    -0.704213776193
H     -1.479235850032     5.803184417474    -0.071348124152
H     -1.702664693869     3.412089019055     0.508298944935
C     -0.746559701110     1.341415768819     2.571863862800
H     -1.353079418097     2.236396123403     2.480647185329
H     -1.267725724520     0.390702226578     2.616991652963
C      0.610718094666     1.398835856903     2.892160538313
H      1.126625979513     0.473383625844     3.104501990068
C      1.342118718833     2.636546523553     3.211830854437
O      2.594327134316     2.584640557721     3.326398767695
O      0.649398640328     3.858833789751     3.266306183571
C      1.459079939707     5.033801269310     3.406585749793
H      0.803424739303     5.930425670180     3.428529572367
H      2.043010830105     5.002628789863     4.354222559156
H      2.154701559691     5.137735003598     2.543267755897
Pd     0.369137634495     1.008099762623     0.645666003157
C     -0.191043692750    -1.914165301899     1.992011307816
O      0.582310788009    -1.118355454663     1.211202549800
O     -0.376407733701    -1.682235651302     3.203262392336
C     -0.837079949029    -3.148681778684     1.291547100939
H     -1.643367346805    -3.474951381607     1.962598798899
C      0.146305038663    -4.287774592076     1.144220685684
H     -0.384833112460    -5.186500207542     0.767159265288
H      0.927174807679    -4.008678738112     0.406497687845
H      0.616335745861    -4.526530101982     2.120595146772
N     -1.382187454199    -2.910288518058    -0.045910932280
C     -1.916957115583    -1.821141904253    -0.414625758948
O     -2.170272322552    -0.723655785270     0.420853733873
C     -2.407236315368    -1.718563860625    -1.796642882380
H     -2.180837703359    -2.660963527109    -2.329207717416
H     -3.496203284559    -1.556359192149    -1.751317826650
H     -1.899174740936    -0.872406593980    -2.287309610256
N      0.546273206446     0.525383027802    -1.428772274898
C      0.144871817561     1.396469292402    -2.411791634484
C      0.405069753727     1.122622462376    -3.737763209043
C      1.078061530097    -0.019646928434    -4.101399886813
C      1.461604086721    -0.885738234454    -3.116100489715
C      1.170349875616    -0.591162182922    -1.765994690230
H     -0.406059195560     2.293242726674    -2.162811664795
H      0.081319563819     1.818446836811    -4.494881512263
H      1.289245702762    -0.234422178136    -5.145740797358
H      1.972645904315    -1.802980795772    -3.333746616057
O      1.553724930188    -1.504373935963    -0.925903365785
H      1.117637002523    -1.435482069330     0.114133446025

