# STO-3G

title

0 1
C      1.791793382531     2.883409953721    -1.603289490762
C      3.171145242114     2.953402005460    -1.897648793157
C      3.629962616807     3.792885998974    -2.935363656052
C      2.719462872085     4.568433651944    -3.678331428648
C      1.344095833823     4.501505005912    -3.381445175952
C      0.878828531092     3.660896830498    -2.348667825904
H     -2.576904509210    -0.381647223407     1.266899675676
H      3.890566023125     2.358458134329    -1.337138028151
H      4.694355888228     3.839980552264    -3.157083705401
H      3.075906781668     5.217940966143    -4.474500302579
H      0.632810646839     5.100053041959    -3.947763446194
H     -0.188274304316     3.615152041248    -2.134770353764
C      2.118902367386     2.755929717776     1.481731169849
H      2.196770849229     2.018075431993     2.271707260031
H      3.051967695535     3.103481806501     1.051141534808
C      0.926715006530     3.415031556695     1.169608283025
H      0.939315741047     4.233560432686     0.466190121798
C     -0.348975014818     3.262060203163     1.893950603218
O     -1.346913458335     3.907412442225     1.481226633291
O     -0.437375702503     2.395742489929     2.997117409525
C     -1.755252464576     2.213172867336     3.536878775396
H     -1.713175624429     1.517452570796     4.401495566577
H     -2.179082345387     3.179708303087     3.891597282206
H     -2.436165337543     1.767935804635     2.774959644686
Pd     1.177986165312     1.609627547294    -0.196006656022
C      1.092860345258    -0.396413516046     2.343001021953
O      0.478751910770     0.189557429149     1.280198116976
O      2.299525777810    -0.192885791526     2.579626297961
C      0.146557283159    -1.245982909610     3.234537113953
H     -0.553028142824    -0.528775475067     3.692685191712
C      0.890103665734    -1.988821416970     4.317916893157
H      0.165210396659    -2.544970649284     4.947269787824
H      1.585785578021    -2.715814851957     3.850337774270
H      1.459452226407    -1.280717371577     4.954600316709
N     -0.549402414681    -2.262134316781     2.431946453291
C     -1.696646811275    -2.011429235187     1.934079351874
O     -2.423644721433    -0.839299502432     2.130544118558
C     -2.321831596491    -3.070157496536     1.130867289511
H     -1.663938604844    -3.261757193202     0.266929660877
H     -2.396791329644    -3.967684958584     1.766985098276
H     -3.320225611817    -2.735274777212     0.800297838808
N      0.215264842336     0.433917427641    -1.684007176121
C      0.646935299003     0.333403344433    -2.981211458802
C     -0.176425169376    -0.213084954422    -3.944472466053
C     -1.433828254445    -0.669562036074    -3.616434175946
C     -1.836740862164    -0.581395059376    -2.310814486431
C     -0.966300290737    -0.024416428761    -1.349248009203
H      1.634331356499     0.685243652489    -3.255572312888
H      0.170767249316    -0.277959903832    -4.962715676643
H     -2.086553304669    -1.096709293664    -4.373177585053
H     -2.797321483425    -0.926521894771    -1.984354488936
O     -1.420493143211    -0.009584923452    -0.119438254642
H     -0.564395898592     0.025811851561     0.715912087492

