# STO-3G

title

0 1
C     -1.650768118275    -1.696341230333     0.705997121569
C     -1.726823579524    -2.633518602736    -0.359440938143
C     -1.437084289898    -3.997062527653    -0.120654037495
C     -1.087379015595    -4.425115474360     1.171520584403
C     -1.010338140990    -3.494025501849     2.235980118924
C     -1.287474116460    -2.139534047547     2.004725326853
H     -1.971205217568    -0.666676147424     0.568051293709
H     -2.058636398651    -2.300391300011    -1.338627681739
H     -1.508881871546    -4.713795843514    -0.934977411350
H     -0.884947526074    -5.477094026909     1.360235040261
H     -0.742621523048    -3.831102581825     3.234689489216
H     -1.230625853767    -1.420065932267     2.817847026555
C      1.749936610092     0.333560894192    -1.803988199391
H      2.619624869836     0.461205036394    -1.167752583913
H      1.220089962874     1.245763685194    -2.054985359600
C      1.476479160520    -0.877566451760    -2.474586494426
H      0.665613251247    -0.894407853668    -3.188521575317
C      2.372194256108    -2.045857520779    -2.503353264233
O      3.479830278547    -2.012283358350    -1.905595049117
O      1.926617210983    -3.213201055127    -3.146755384433
C      2.834693545242    -4.323953246667    -3.128213524012
H      2.379010739926    -5.182243934308    -3.667549922339
H      3.790223742518    -4.062031913786    -3.637431044182
H      3.049976995603    -4.643129759567    -2.083142860162
Pd     0.210684875601    -0.706397407290    -0.628494886334
C      0.218177512511     3.517685919415     0.025202933055
O      0.118137777185     4.628455357626    -0.522359242594
O      1.408378814599     2.881399885137     0.127642887263
C     -1.064203975333     2.753199077205     0.503804676755
H     -1.902280675474     3.418296003779     0.240701585301
C     -1.096500624455     2.496145617003     1.992552308517
H     -2.069711817662     2.038388894041     2.264592139626
H     -0.289950847099     1.790510813563     2.278369560919
H     -0.971616287015     3.447248279550     2.550212033330
N     -1.085059066813     1.455381029753    -0.158565294084
C     -1.544704289990     1.199140196242    -1.340916009022
O     -1.228716464676     0.025410545432    -1.906436696701
C     -2.385389176783     2.128252007702    -2.118676667293
H     -2.638345640324     1.652593424749    -3.083261621024
H     -3.304335562188     2.324175934270    -1.541434804539
H     -1.816650953601     3.059121577224    -2.295979847588
N      1.613648620753    -1.375916973162     0.643339757212
C      1.909369143908    -2.704488908107     0.765050690114
C      2.776480050180    -3.130235153337     1.747706822844
C      3.363718299794    -2.227283431184     2.604928441967
C      3.059567462475    -0.898573551717     2.470879459612
C      2.163382505295    -0.472488490806     1.459723804382
H      1.462471500571    -3.421265369568     0.087245281175
H      3.004256164186    -4.178937249022     1.832904533138
H      4.054754765908    -2.562134858496     3.373614545027
H      3.487248759380    -0.151564004029     3.107645246363
O      1.921713272798     0.774768847617     1.407211856046
H      1.472961630960     1.981838713779     0.614953007652

