# STO-3G

title

0 1
C      2.339553705197     2.221684481779    -0.661727778178
C      3.542937942877     2.444064275030     0.040838794343
C      4.234830848333     3.662903504803    -0.111446004173
C      3.729852790328     4.667910953199    -0.960512037491
C      2.526190120231     4.448583112350    -1.656897905807
C      1.834182834144     3.226509589593    -1.514832425812
H     -1.026029758353    -0.380296975124     3.358174684566
H      3.932602051750     1.685825166061     0.716581629340
H      5.161622634205     3.827074667748     0.435521577900
H      4.264576257888     5.608505841251    -1.073869977724
H      2.123539088697     5.221151466949    -2.309799943246
H      0.907555700935     3.070484710707    -2.064907327382
C     -1.862035556298     1.500279867909     0.064551032030
H     -1.757504358395     2.497869162072     0.486949267956
H     -1.167166910936     1.253116737036    -0.732925924495
C     -2.768029956146     0.588420943083     0.487044378443
H     -2.802174523345    -0.389891028413     0.026417592128
C     -3.749473356477     0.820370562749     1.558751811820
O     -4.606949432784    -0.067032283658     1.809540319172
O     -3.725531296399     2.034170142944     2.274872684544
C     -4.705993986299     2.165367245968     3.313692096744
H     -4.592203928094     3.154453393644     3.806703440836
H     -5.736119464726     2.101606043974     2.894843665869
H     -4.572436594977     1.372797770738     4.084902717276
Pd     1.345537148629     0.522343151218    -0.379048645794
C     -0.440223777726    -1.925178690178     0.930152932407
O     -0.013436865978    -1.203464743568    -0.104241063876
O     -1.400492766299    -2.724804030690     0.903432404996
C      0.343695106825    -1.584373674810     2.234817203704
H      1.394282468988    -1.421134777328     1.974043401861
C      0.248278579077    -2.659472225005     3.294470956627
H      0.818827552139    -2.349377646794     4.194031600362
H     -0.815414074179    -2.808351965856     3.576052522476
H      0.659794621864    -3.614317669042     2.908039004502
N     -0.174486996852    -0.331120930754     2.810571299114
C      0.343444797601     0.871872821556     2.527463105037
O      1.240827106479     1.101955004575     1.664759983597
C     -0.160995445073     2.005399616681     3.322811879763
H      0.353021881452     2.929445208233     3.004279535985
H     -1.246538336701     2.088575009851     3.148425636773
H      0.043306047430     1.795374949413     4.386916652313
N      1.375762212616     0.120895362002    -2.411387176153
C      2.460517572170     0.475736455515    -3.173049657017
C      2.399189029014     0.395849130954    -4.548438173215
C      1.258050495902    -0.049935142021    -5.175095603168
C      0.198914599845    -0.432050717019    -4.397352981801
C      0.297866445953    -0.356029090488    -2.991582132553
H      3.370536673984     0.824562732946    -2.699687172761
H      3.254671893660     0.689976952873    -5.134621133109
H      1.204543450917    -0.111157126278    -6.258948543137
H     -0.709183128958    -0.813697417589    -4.821259672867
O     -0.757741858691    -0.793104871700    -2.350219512563
H     -0.574410194527    -1.048256717978    -1.306606669587

