# STO-3G

title

0 1
C      2.555432769778     2.053005979329    -0.652894317657
C      3.837061810974     1.943812074221    -0.072017711179
C      4.786832378672     2.969534420968    -0.255039478710
C      4.464668064988     4.112249293138    -1.014198559906
C      3.185195443460     4.224434846065    -1.590328203382
C      2.234048195313     3.195831727074    -1.417629632676
H     -0.550895342178    -0.168982870281     3.855650605017
H      4.092923703482     1.077666583336     0.534274836542
H      5.772708923789     2.876871555353     0.197318249620
H      5.198420738698     4.903632060853    -1.151458469017
H      2.923145073003     5.105691896009    -2.173487471167
H      1.251853953601     3.295965766390    -1.877106228217
C     -1.494681885086     2.298899062043     0.281484258365
H     -1.779816421925     2.093119768940    -0.748055132084
H     -0.530810025424     2.780004448620     0.424521229661
C     -2.263315058223     1.933633232217     1.333193758782
H     -1.921578234000     2.120797712191     2.342377018506
C     -3.562411122968     1.247572745218     1.234821548305
O     -4.133367469129     1.139665748342     0.115486005722
O     -4.231248572523     0.915660233154     2.426457967932
C     -5.413626104718     0.119968803347     2.268576257164
H     -5.844111313184    -0.102446362954     3.267884979588
H     -6.180067088281     0.661677868378     1.669321174220
H     -5.169630584307    -0.847580897799     1.771893538963
Pd     1.201314569921     0.628066149540    -0.328445701549
C     -0.994861841539    -1.283487572204     1.129662786809
O     -0.514899565368    -0.727628397618     0.022253947277
O     -2.187753729037    -1.599437471501     1.334330976848
C      0.099522046538    -1.414799400076     2.236131580039
H      1.077923652152    -1.484910706857     1.750510478965
C     -0.101466687729    -2.613774162177     3.136395609130
H      0.700469731433    -2.644238852712     3.902553571505
H     -1.084322586051    -2.533725198724     3.646660561386
H     -0.075587488268    -3.548190032590     2.539240331651
N      0.098091896435    -0.205978806434     3.078330436789
C      0.822128631422     0.885037598092     2.788704368064
O      1.480816675383     1.076220089488     1.727486895205
C      0.874391032281     1.929587796226     3.828475182637
H      1.498556096487     2.767749833170     3.470124237448
H     -0.153718380677     2.271373057881     4.029771666354
H      1.314289372181     1.483620351419     4.737545622896
N      0.943315146873     0.358264624546    -2.362804846250
C      2.008798719123     0.478658561237    -3.218979756325
C      1.806762198258     0.488813225109    -4.583130541619
C      0.539288197443     0.368375525301    -5.105060586695
C     -0.506721030253     0.214804131564    -4.236730149696
C     -0.267143480700     0.191262792782    -2.845897122921
H      3.015691854675     0.569163100725    -2.829440012508
H      2.652014266821     0.596915907438    -5.243116071630
H      0.374719960029     0.380154748742    -6.179315841371
H     -1.516224886469     0.091089777949    -4.577304271209
O     -1.336338527987    -0.009143475855    -2.118868083777
H     -1.147761335125    -0.330040093991    -1.100545054538

