# STO-3G

title

0 1
C      1.843668209923     2.058261544734    -0.456188689921
C      2.901259225238     2.594416294343     0.309946322122
C      3.443148194644     3.854777136746    -0.014628650057
C      2.931293421711     4.591936577887    -1.101248154228
C      1.873860944655     4.060003816747    -1.862807201525
C      1.336007948415     2.793396225828    -1.548393282229
H     -1.391088150221    -0.325274568871     3.860924170732
H      3.292008205869     2.047053682255     1.165105652673
H      4.257990713723     4.260135864660     0.582563553467
H      3.347118570025     5.566486403765    -1.347455135931
H      1.460826577281     4.622549446778    -2.698503214187
H      0.519117068877     2.399622863554    -2.151691530925
C     -2.777296553660    -0.006903282413     0.589496123612
H     -3.349206746983     0.366360857021     1.436750522827
H     -2.607731326656    -1.079078681179     0.558958318206
C     -2.288943994346     0.794525506459    -0.384003229524
H     -1.733881511643     0.357516610971    -1.203941749841
C     -2.436575385872     2.256725992532    -0.425829539373
O     -1.986912607584     2.881956062125    -1.422472180664
O     -3.000115726088     2.936992524798     0.670843083131
C     -3.017685018509     4.368128606698     0.575734913097
H     -3.481017762017     4.793256415448     1.491799312922
H     -1.982453434709     4.770754240089     0.489001722462
H     -3.617191710141     4.698762752698    -0.302756134506
Pd     1.060811343100     0.310070533648     0.078884124296
C     -0.354011906105    -2.115567225987     1.769820901707
O      0.013474260313    -1.556540882565     0.619861017467
O     -1.165160121538    -3.060301169717     1.889726252632
C      0.264334623487    -1.373201369281     2.994866112493
H      1.265946561023    -1.026196007046     2.721807669628
C      0.348760619968    -2.227217727900     4.240332407764
H      0.786162411940    -1.634507702113     5.070070286403
H     -0.669280045161    -2.559216690247     4.532985102001
H      0.982302416117    -3.117707134257     4.050379833589
N     -0.553497231561    -0.188421982810     3.306844916319
C     -0.318653628462     1.022251027442     2.778256249402
O      0.542293498151     1.284597920467     1.891289395240
C     -1.120571928613     2.136731365031     3.313781505325
H     -0.823788688742     3.071498812297     2.805732620507
H     -2.183024991101     1.920023790213     3.113759128453
H     -0.933607842079     2.206596179846     4.399083531497
N      1.436163837118    -0.501567169223    -1.791254941616
C      2.532583015498    -0.104789493256    -2.514948030215
C      2.670618521044    -0.486198338507    -3.833214803616
C      1.717708982093    -1.271991252487    -4.439412421426
C      0.648201154892    -1.685425340351    -3.692692036020
C      0.543681655353    -1.292618084078    -2.341089592338
H      3.298484017570     0.508851225590    -2.056339306109
H      3.530777873503    -0.155850800209    -4.392423594081
H      1.819218234830    -1.568736742837    -5.480017526512
H     -0.117015086447    -2.317767346096    -4.097590512778
O     -0.499033363875    -1.784791995862    -1.715349216508
H     -0.417381657971    -1.770598796784    -0.633266419021

