# STO-3G

title

0 1
C     -0.036186627235     2.751990186516    -0.726432302304
C      1.122948366592     3.552003034798    -0.620020941763
C      1.027861451123     4.957896699982    -0.697044488156
C     -0.221777235113     5.574026426816    -0.896573417651
C     -1.378504004301     4.777026411028    -1.009154798852
C     -1.289206586810     3.372988895583    -0.922022821431
H     -2.467766027314    -1.605933527976     2.549162782298
H      2.096631543867     3.088552800065    -0.463308086297
H      1.928571187151     5.561833755366    -0.602296251412
H     -0.294497326530     6.657527651431    -0.961153903120
H     -2.349482386778     5.245410305514    -1.160745416391
H     -2.193968428868     2.773316839827    -0.988054549585
C      0.940187911864    -1.577235283956     3.413441331842
H      0.447462500619    -1.087856378611     4.250921838195
H      0.936241283868    -2.663825052966     3.407803053128
C      1.527714215760    -0.895601029640     2.406053219297
H      1.985880428822    -1.424197834450     1.583222972723
C      1.531867298076     0.566651264732     2.274218449645
O      1.861569993416     1.065583090821     1.165078788555
O      1.023651019777     1.369791289282     3.313438458223
C      0.934855787538     2.774281037354     3.031363390614
H      0.541522405175     3.306196776117     3.923581847180
H      1.936193730412     3.195812654912     2.787548849251
H      0.238938497407     2.964394960778     2.182429525046
Pd     0.016382428335     0.767703087372    -0.532157476626
C     -0.745720308302    -2.381553551683     0.126790288781
O      0.092308262473    -1.394400890188    -0.164552730005
O     -0.447940504249    -3.595497980217     0.159875778739
C     -2.190236272065    -1.931725493616     0.500956257756
H     -2.732666189273    -2.849993612916     0.748250715426
C     -2.922717073525    -1.238401346712    -0.631409840489
H     -3.946111416971    -0.967656885845    -0.298212947636
H     -2.389116269753    -0.318038168476    -0.933702648180
H     -2.996555001324    -1.918366271259    -1.505242969833
N     -2.235775861846    -1.085112904865     1.711236252315
C     -1.922432161826     0.211407333725     1.867101978178
O     -1.413509913840     0.987455803117     1.009620590561
C     -2.257242556868     0.791984202230     3.182752545070
H     -3.337116143563     0.647474509539     3.354537513437
H     -1.663961488884     0.264734348790     3.947156040141
H     -2.006766418792     1.867741825088     3.185222801581
N      1.450794960998     0.554262709612    -2.015999858146
C      1.537125440430     1.458999982571    -3.042878883438
C      2.626480464211     1.449696875311    -3.889204981299
C      3.636190896040     0.530434159510    -3.720896388129
C      3.517061234929    -0.386390364518    -2.712508296721
C      2.385258563827    -0.357651155449    -1.867826270162
H      0.747305029517     2.182773183947    -3.202273808685
H      2.684682375229     2.173751403227    -4.685039804270
H      4.497909538892     0.521450248625    -4.382931137356
H      4.254081137248    -1.145858174846    -2.543883565479
O      2.354043142598    -1.325863272222    -0.982848104239
H      1.379944928832    -1.480472583280    -0.533574274315

