# STO-3G

title

0 1
C     -0.052110204297     2.474939864055    -1.479663339066
C      1.215415150578     3.097158963544    -1.430713258345
C      1.322796102521     4.501828450813    -1.515812148948
C      0.170245324425     5.296469628083    -1.663325852763
C     -1.095093286814     4.678680271648    -1.715921753726
C     -1.208131606956     3.276580793496    -1.621630286857
H     -1.758582789196    -0.531069265068     2.953818619194
H      2.120575339874     2.503985098633    -1.322079102150
H      2.305271227192     4.968033411098    -1.464557612991
H      0.255741612930     6.378871041131    -1.732095684081
H     -1.992981696591     5.284366937448    -1.826107107539
H     -2.192078357213     2.814474729305    -1.637449852500
C      1.708820815255     0.765556699013     1.576584487212
H      2.143586214356    -0.085423485056     2.093284639810
H      1.869658933037     0.788545790237     0.503771344040
C      0.959455145510     1.716782506856     2.175564106488
H      0.525911977271     2.505468016001     1.574987884201
C      0.655562850406     1.760004888101     3.614625129133
O     -0.118724170845     2.658571148344     4.041626859380
O      1.206053253889     0.797328426401     4.481482492345
C      0.803113792390     0.886186863882     5.854846457353
H      1.298300763906     0.078533419262     6.435548346945
H      1.103569674096     1.864881136478     6.292892616805
H     -0.298858970013     0.758177704979     5.951371293258
Pd    -0.330574224182     0.504606253136    -1.326317247755
C     -0.442513275786    -1.837345512768     0.252255784995
O     -0.801973568738    -1.621271391104    -0.964924643250
O      0.790608275006    -1.931423094183     0.645749932871
C     -1.512271040319    -1.887162480232     1.372786456899
H     -1.103603251364    -2.493607524090     2.187208024527
C     -2.830872890683    -2.474514596656     0.915802517015
H     -3.536680191565    -2.513749417864     1.771092678562
H     -3.266217104145    -1.835454711628     0.119783670539
H     -2.676914143866    -3.499847308544     0.521215674153
N     -1.788326672704    -0.542803934170     1.942612942793
C     -2.071766676528     0.605940327629     1.296437390116
O     -1.917958747080     0.840310906676     0.064814483201
C     -2.653730361831     1.704360788436     2.098543939157
H     -2.732436851683     1.427436226448     3.163745151582
H     -1.999489547621     2.585820869051     1.993005294801
H     -3.654786183315     1.927151001575     1.692569463474
N      1.276290273074     0.147466653510    -2.512641886209
C      1.260987294569     0.725238952787    -3.754861465536
C      2.342439918898     0.585692306063    -4.596936725441
C      3.443412022770    -0.139472599732    -4.205463898083
C      3.431482870291    -0.720703141271    -2.966231913241
C      2.304848336756    -0.572453168118    -2.124442992785
H      0.400764963955     1.303636542444    -4.071908887764
H      2.321932454826     1.052323832961    -5.568174818353
H      4.299994626460    -0.251259640031    -4.864946168365
H      4.256321307691    -1.304948753440    -2.609215075151
O      2.433035719487    -1.182018611537    -0.980404340938
H      1.645805971852    -1.504125950462    -0.260475955198

