# STO-3G

title

0 1
C      0.196904771115     2.731089772353    -1.323812266605
C      1.543893270133     3.155334191729    -1.306899422854
C      1.854552698230     4.528504708560    -1.403274157224
C      0.827730633360     5.483133793469    -1.529276857301
C     -0.515561052475     5.059086650892    -1.549168601954
C     -0.834283602906     3.689505192833    -1.444098792082
H     -0.708728003605     0.321749261736     1.760976119512
H      2.352117688317     2.433339074834    -1.216925431595
H      2.895741120102     4.845016830890    -1.378393288940
H      1.069758983809     6.540873265240    -1.605841005438
H     -1.316585514635     5.790575263486    -1.638576058887
H     -1.875289025796     3.378050604535    -1.435123465043
C      1.676194293198     0.665675588770     1.626973395438
H      2.065221164773    -0.190883394369     2.172386113788
H      1.798777267446     0.622154612288     0.548668719645
C      1.050515003712     1.718251562670     2.207507342253
H      0.677089322457     2.523430844913     1.588473953743
C      0.829592263373     1.866384342996     3.654992894494
O      0.284009129748     2.918469334968     4.083981556811
O      1.277675891908     0.864570802024     4.538473413753
C      1.011468438817     1.092518537736     5.929082506871
H      1.404661712439     0.240268215023     6.523435487937
H      1.512770209907     2.023028390003     6.279830704755
H     -0.084156943255     1.170515780875     6.112723164946
Pd    -0.337029559913     0.816258192580    -1.156100519169
C     -0.507648708420    -1.784571028479     0.397981055001
O     -1.022361250591    -1.281347928826    -0.671249657541
O      0.714050407912    -2.198349100424     0.506222918914
C     -1.328176314907    -1.626931215200     1.722552777306
H     -0.686300142716    -1.869880026556     2.572850074728
C     -2.583846286451    -2.467115097489     1.776720706535
H     -3.152245647332    -2.226192999392     2.697958764454
H     -3.210435082796    -2.285463143745     0.881288134028
H     -2.308442212484    -3.541614180958     1.801584481803
N     -1.617877574582    -0.164130543369     1.749192794841
C     -2.466432494331     0.508176441362     0.913151358200
O     -2.055372466480     1.330872866417     0.038881624628
C     -3.920099909626     0.396428623075     1.114075742335
H     -4.122115623986    -0.159268393756     2.043726772452
H     -4.315714309323     1.421821364880     1.212450829198
H     -4.356419706515    -0.101165724166     0.231824508141
N      1.123571818424     0.268428889286    -2.471514473149
C      1.061653107633     0.900361511986    -3.686762026997
C      2.027323683655     0.666679293390    -4.641107423785
C      3.061691577083    -0.202932876696    -4.389257767494
C      3.095840869724    -0.836605143222    -3.176902178377
C      2.083089067230    -0.592679303609    -2.219667338890
H      0.254993174935     1.593404354260    -3.896396271710
H      1.971492566671     1.178183288522    -5.588065321112
H      3.829947831651    -0.386137298730    -5.135818934882
H      3.872348984563    -1.531640063906    -2.925965570971
O      2.242259069205    -1.269233370730    -1.118791218443
H      1.492761683141    -1.693401649765    -0.406242614187

