# STO-3G

title

0 1
C      0.366743243978     2.337015706668    -1.103499175891
C      1.281059004414     3.371491696436    -1.410588138311
C      1.019966589820     4.278276554324    -2.459100729305
C     -0.157782419872     4.172267949849    -3.221552808313
C     -1.080088295473     3.152195050752    -2.923328601722
C     -0.822604935014     2.246234864984    -1.875094842390
H     -1.118246514300     2.801390604600     0.439680919262
H      2.205718032002     3.490461466100    -0.854500487324
H      1.741196704384     5.064006055798    -2.675721326437
H     -0.354902263131     4.874478560197    -4.028058168726
H     -2.001565002161     3.063374022686    -3.495221967299
H     -1.548051229689     1.463071900405    -1.664469777628
C      2.435336363186     1.738746396839     1.216257355067
H      2.958216997771     0.891273420498     1.651807145144
H      2.975863895972     2.267198940259     0.443285052478
C      1.312483879710     2.305337239378     1.864988154676
H      0.941835569777     3.267468106334     1.542954308071
C      0.837351492869     1.879182400014     3.196682380256
O      1.530161814465     1.081238083728     3.881792824180
O     -0.317126221980     2.478127619903     3.729305820107
C     -0.692995748045     2.051642415694     5.046281006713
H     -1.617907033476     2.584026519097     5.355659672798
H     -0.893064334561     0.956097437969     5.065969882046
H      0.107883165721     2.291778187701     5.782252039642
Pd     0.646272860583     0.869157222090     0.259767743670
C     -0.323587020822    -1.488578367907     1.884357879615
O      0.776245257009    -0.765573601996     1.620298726901
O     -0.357680599952    -2.523068241504     2.576522294873
C     -1.638228485056    -0.942001365494     1.222296016545
H     -2.448721402414    -1.179575825320     1.926887992615
C     -1.918523865410    -1.647531164413    -0.085874579665
H     -2.867683900195    -1.269026108651    -0.517939638339
H     -1.094525774346    -1.446025219910    -0.801968907752
H     -2.003899855537    -2.742309647648     0.077931784806
N     -1.489369441148     0.480166751063     0.902604444185
C     -2.221075360041     1.455849938534     1.307164987898
O     -1.933838337129     2.739074907000     1.000557930522
C     -3.418605673379     1.274783111643     2.144563077674
H     -4.127628004439     0.627419577139     1.602553975938
H     -3.102330891221     0.831492873274     3.102916503467
H     -3.879459947757     2.262908549433     2.330563238804
N      1.555251222154    -0.500660225760    -1.307411491509
C      1.378180061116    -0.316533243502    -2.654929914384
C      2.246842077238    -0.897713256690    -3.556976873593
C      3.298289821449    -1.671028959607    -3.119601353214
C      3.449721734992    -1.854546305808    -1.771961592688
C      2.535669423407    -1.251497938813    -0.881394536492
H      0.551713595763     0.275286032977    -3.022028055643
H      2.096586803362    -0.740557977677    -4.612588457556
H      3.985701416720    -2.129237249993    -3.825775093224
H      4.238963074512    -2.453974225044    -1.363013026376
O      2.781851020422    -1.512403381622     0.390075603832
H      2.017814410732    -1.260355132158     1.053967298941

