# STO-3G

title

0 1
C      0.189749215415     2.295786118546    -1.329466259240
C      1.313354737201     3.097347541364    -1.641368776596
C      1.433195047627     3.708793642765    -2.906003928892
C      0.440256931264     3.526176134242    -3.887133305979
C     -0.665004516130     2.706061120552    -3.599409684895
C     -0.786217799039     2.087749832486    -2.336946041436
H     -2.121206781423     2.629819855960    -0.432373009205
H      2.120847324772     3.230255001835    -0.926006306970
H      2.307448655873     4.320746104223    -3.120710724934
H      0.533460637366     4.004412884399    -4.859231043082
H     -1.433022299762     2.538491088854    -4.351970384340
H     -1.623003803853     1.414059570455    -2.168875939768
C     -0.535994110094     2.915735898839     1.681300196169
H     -1.056621759775     2.422822823905     2.496828227203
H     -1.106396996004     3.641829671289     1.111248962206
C      0.873059638004     2.936776431432     1.614115647696
H      1.339470915242     3.599937520853     0.904676123260
C      1.780656683688     2.435612655170     2.661066500249
O      3.017853451101     2.616771889365     2.516647808529
O      1.253633890955     1.856200051948     3.826941875641
C      2.211752978597     1.292813954609     4.733290384768
H      1.678376220607     0.844095170478     5.598680260858
H      2.799468932926     0.486930660212     4.236423254684
H      2.904869718768     2.075600683301     5.115762462812
Pd     0.028059373919     1.230422284714     0.371985786439
C     -1.117758940104    -1.013917230947     2.115619915300
O     -0.171183641521    -0.060739277428     2.081732889808
O     -1.215602464800    -1.890595132249     2.995549180287
C     -2.139151750313    -0.978299487806     0.925156814989
H     -3.093434555457    -1.328714454117     1.346666509435
C     -1.730294079447    -1.930360239577    -0.175987928482
H     -2.492828674599    -1.916855418325    -0.981708568983
H     -0.757528600534    -1.612859989544    -0.603126593219
H     -1.638283384887    -2.962918651362     0.221368408363
N     -2.169511918360     0.358868935045     0.332935973592
C     -3.171320167057     1.156981403558     0.278732005353
O     -3.055908540727     2.424979109451    -0.186608474123
C     -4.530928647546     0.789478082711     0.711546545093
H     -4.857798224854    -0.083628729347     0.122199004453
H     -4.504558719321     0.568915720729     1.791631594086
H     -5.213276472681     1.639964085216     0.525052030316
N      1.541911422049    -0.200714315273    -0.398476582910
C      1.805142634561    -0.351182703348    -1.736351560690
C      2.960270067036    -0.982901644931    -2.150837092198
C      3.862726303955    -1.468343946330    -1.231517168797
C      3.572791117776    -1.326200618334     0.098430113692
C      2.377133150324    -0.684170503833     0.484872761074
H      1.103631882108     0.013218208176    -2.475617024809
H      3.156597636052    -1.087398636135    -3.205294850068
H      4.777204262426    -1.959511990108    -1.553319273712
H      4.226506275818    -1.688846397754     0.866540078730
O      2.196493279106    -0.625845293785     1.790456000334
H      1.217607013325    -0.391384861449     2.093022655977

