# STO-3G

title

0 1
C      0.452188594712     2.345001974222    -1.315702659181
C      0.846483441282     3.709583920522    -1.277335781960
C      0.692794892310     4.548611007857    -2.403279244154
C      0.140547624293     4.045429997782    -3.593528166053
C     -0.260018373916     2.694691879796    -3.653990082917
C     -0.105137651029     1.859027425566    -2.533031976829
H     -1.254662883505     2.812917528981    -0.429583818402
H      1.270310595142     4.143648016758    -0.375561112575
H      1.004009396792     5.588991976558    -2.341214721008
H      0.022873390009     4.691776607631    -4.459626759534
H     -0.689201307427     2.293929327832    -4.569627707767
H     -0.414538652504     0.818872604858    -2.598637390991
C      2.064877257564     2.122739030010     1.356897276742
H      2.648722384605     1.358035364413     1.859755445758
H      2.599130077433     2.731239327064     0.635335579436
C      0.800771944910     2.514139627638     1.847114156867
H      0.312282113040     3.392758597313     1.449726009333
C      0.225824813263     2.016519857492     3.111082125985
O     -0.954578044135     2.340646433406     3.411907151473
O      1.038439545684     1.305189067725     4.010976958274
C      0.372560105256     0.744777107988     5.150652371219
H      1.111895123524     0.197195519058     5.773678343158
H     -0.088687745027     1.542872365755     5.774916693848
H     -0.408857254522     0.017824995345     4.832632085110
Pd     0.532849823852     0.976220742719     0.215132243034
C     -0.639664955549    -1.120562360879     1.991410721823
O      0.499286709846    -0.509322346867     1.670463725506
O     -0.736378140071    -2.072192744153     2.799875836147
C     -1.944174550272    -0.600191446511     1.275453469525
H     -2.710849721132    -0.573008540427     2.064575641857
C     -2.407046253799    -1.554437355671     0.195203232356
H     -3.391538783475    -1.224652111223    -0.195185340769
H     -1.681254226337    -1.549916301951    -0.642560353424
H     -2.504853786758    -2.582727559704     0.602146652189
N     -1.694336311487     0.687753687773     0.621467875558
C     -2.456091618750     1.725158897895     0.655089380664
O     -2.127583838631     2.881929836672     0.041500621348
C     -3.742699386947     1.761147830348     1.372830371243
H     -4.388792064821     0.959855489594     0.979737012260
H     -3.532507691275     1.638513158055     2.449278940283
H     -4.220862693470     2.744311094772     1.206758018675
N      1.737704544394    -0.494210992183    -0.987491182274
C      1.537196845316    -1.835372749935    -0.780949116334
C      2.482878379985    -2.750040481098    -1.203930990515
C      3.640262591960    -2.327070849429    -1.820325121612
C      3.820987469454    -0.981387412800    -2.003972388182
C      2.824797484542    -0.089804445233    -1.559792858867
H      0.630064669335    -2.185789766121    -0.308295615035
H      2.313263992116    -3.801341295005    -1.037049954387
H      4.390610802085    -3.041507997990    -2.148554141895
H      4.699569610169    -0.581221076666    -2.469291512073
O      3.117951826181     1.197261960400    -1.763606216530
H      2.362864254783     1.782268867982    -1.495702356131

