# STO-3G

title

0 1
C      1.715212806866    -0.287457782479     0.312481606004
C      1.607792506467    -1.381733464404     1.207346318966
C      2.760987802467    -1.998176092974     1.737718473481
C      4.040270938774    -1.525083025533     1.391474028625
C      4.159396010192    -0.426802621266     0.517448799754
C      3.008587487805     0.191475819768    -0.011791726075
H      1.204494613169    -1.756049415154    -1.038231180751
H      0.626883251489    -1.757840136204     1.492272299897
H      2.655238334194    -2.841662749313     2.416812117140
H      4.929363597679    -1.998374163001     1.801198675988
H      5.143569960898    -0.043822986465     0.254523955214
H      3.125267369928     1.053680737140    -0.665167454904
C      0.576046844805     2.376929030382     0.656065655051
H      0.104610853346     3.196105987400     0.117589283692
H      1.658338274920     2.398856898681     0.699262824426
C     -0.163689223667     1.583375217364     1.575339793760
H      0.371363726556     0.935329622982     2.252123446272
C     -1.559206236796     1.859894956349     1.963288262844
O     -2.127343828758     2.910105656306     1.566673778262
O     -2.195288242929     0.975317493438     2.850959392462
C     -3.554099241259     1.296490009203     3.182810880796
H     -3.956877589377     0.529445600566     3.878737504615
H     -3.614644483057     2.288118320926     3.686951022556
H     -4.192896826593     1.310315992108     2.269724942281
Pd     0.038464290485     0.582563600177    -0.404223800518
C     -2.823239235961     0.647564857205    -1.327079951598
O     -1.774653836835     1.440847894428    -1.071476615331
O     -3.939401294173     1.030694418039    -1.726014591210
C     -2.567172036050    -0.880847237347    -1.084673416542
H     -3.157206601518    -1.389205079667    -1.860952393919
C     -3.078838806507    -1.328712981710     0.267211726931
H     -3.000451723646    -2.432062772954     0.349065599610
H     -2.463999979657    -0.875274864887     1.068674551638
H     -4.140037549073    -1.029875925529     0.398160246044
N     -1.128381564723    -1.186206449625    -1.118164870577
C     -0.569874287790    -2.173242111536    -1.720516385898
O      0.763965957226    -2.372843213284    -1.682760663318
C     -1.314062169125    -3.160493984353    -2.522416459397
H     -2.061271244173    -3.646588181652    -1.873930986298
H     -1.783247659969    -2.632477687689    -3.369100262893
H     -0.607106556033    -3.918570397983    -2.908283337131
N      0.904512273958     1.056921464318    -2.560439523600
C      1.925106398520     0.366878800946    -3.163014559571
C      2.590615418750     0.913640628328    -4.243363662049
C      2.228414777741     2.145620023296    -4.739953618737
C      1.192125374903     2.807132624186    -4.138210732218
C      0.532083806900     2.209304345896    -3.042320795905
H      2.236400828251    -0.594832568152    -2.780011153618
H      3.397709231312     0.363674303715    -4.698710241931
H      2.747077502125     2.578294590898    -5.591265513095
H      0.846102448997     3.761204614711    -4.482909452395
O     -0.469183418598     2.932268516363    -2.567169340134
H     -1.115719412270     2.433853472806    -1.926128796280

