# STO-3G

title

0 1
C      0.368923003143     2.171137578937    -0.410584460304
C      1.384469995366     3.154758348560    -0.447366236650
C      1.235608488913     4.318581449763    -1.229110952027
C      0.074964061370     4.522136760175    -1.998849449490
C     -0.937769067160     3.546309255358    -1.983646681770
C     -0.792676412441     2.382243997783    -1.201157942031
H     -1.327330260249     2.244535125227     1.029667876475
H      2.298955186846     3.036295760866     0.125168747417
H      2.031758019389     5.060512992896    -1.233230019464
H     -0.035618164500     5.422162406640    -2.598864003287
H     -1.841366191990     3.685618516064    -2.573810484371
H     -1.579311202282     1.631012314101    -1.227713922965
C      2.199558195636     0.861038640203     1.865230863359
H      2.785838235506     1.699068559548     1.509713931723
H      2.703545838717    -0.100659257889     1.860505188958
C      1.032246937536     1.037427769092     2.638506591613
H      0.627635869214     0.174873111282     3.149089642885
C      0.531216279896     2.335197527690     3.121363395203
O     -0.298961914265     2.348065946893     4.068040910197
O      1.092771520259     3.523233566417     2.623519401684
C      0.388142581260     4.725474626461     2.960224877922
H      0.897690740359     5.594256949582     2.491817559592
H     -0.656700819029     4.687904924699     2.573191506312
H      0.370566077681     4.881186199093     4.062737167214
Pd     0.505174339367     0.384670725302     0.516136728509
C     -0.600173739333    -2.309792358581     1.361290454422
O      0.524247565327    -1.572701600769     1.391514153339
O     -0.692334253151    -3.486726482263     1.756861822101
C     -1.850939733223    -1.577862113306     0.758174176083
H     -2.721041790638    -1.985199856019     1.294091513610
C     -2.004998568244    -1.893893561111    -0.712883018593
H     -2.916711432466    -1.399030680573    -1.106501732240
H     -1.124270722494    -1.513444690584    -1.271237193398
H     -2.092156893025    -2.990275341062    -0.864566787581
N     -1.685350793047    -0.124904980732     0.853040684218
C     -2.448509354673     0.710380241400     1.461947758769
O     -2.156173377928     2.027609086989     1.527262303145
C     -3.692790896364     0.321347204912     2.146596397095
H     -4.367159463351    -0.143027364121     1.408344900956
H     -3.434150735150    -0.371666166572     2.964472766150
H     -4.168063765617     1.225914195010     2.570666861218
N      1.521563857252    -0.505550919062    -1.305348711879
C      1.455524485367     0.067454226840    -2.549981950197
C      2.380322258590    -0.266561349899    -3.519141402638
C      3.377519253198    -1.177429819909    -3.253147589038
C      3.417466498058    -1.748755277792    -2.009973390490
C      2.448294880504    -1.389209835159    -1.049218888853
H      0.673044614964     0.775350765383    -2.785723073310
H      2.317759815422     0.195318406911    -4.490981800497
H      4.109084769459    -1.441334294390    -4.012351818054
H      4.159080395608    -2.474323013011    -1.740031053600
O      2.585026975680    -2.017302221756     0.105999698771
H      1.775092589627    -1.933585819167     0.757637367356

