# STO-3G

title

0 1
C      0.297056481387     2.254968862929    -1.386341933913
C      1.241272124039     3.205654443267    -1.840347225960
C      1.058346998116     3.877507195258    -3.066816783953
C     -0.065888809575     3.611112894084    -3.870331995963
C     -1.007053099635     2.659123964205    -3.438875877970
C     -0.827034623401     1.986480016336    -2.213048756443
H     -1.503906225726     2.789935111621    -0.146164597889
H      2.135643364656     3.428510249178    -1.267552765845
H      1.800268720686     4.604930422065    -3.390816997142
H     -0.203695062098     4.134665877104    -4.813307833643
H     -1.882587774918     2.439781012039    -4.046699261801
H     -1.557215424675     1.237176065958    -1.914462124932
C      1.964644032606     2.374311747010     1.299946149565
H      2.567419819559     1.680079369799     1.879136582268
H      2.492487122537     2.927028422685     0.536219100010
C      0.687347334279     2.779861034770     1.741927336111
H      0.199130836293     3.622099998742     1.272673823684
C      0.118522647532     2.378881009725     3.044165913465
O     -1.058588633039     2.721739717708     3.332804086602
O      0.927565136359     1.701002153520     3.973315800132
C      0.269137186571     1.232723677527     5.158001444146
H      1.005251453606     0.704216042370     5.801237815306
H     -0.157191964259     2.081913985333     5.738274203993
H     -0.538743654790     0.510789342172     4.900907820546
Pd     0.495214707229     1.080613364899     0.245144841796
C     -0.462292545518    -1.041772873140     2.193027967948
O      0.602241102386    -0.289126490368     1.875312007102
O     -0.495398823059    -1.885049826440     3.109076096678
C     -1.728631764215    -0.790274797275     1.299565817928
H     -2.594621096262    -0.995114498855     1.946054512578
C     -1.764429771688    -1.748642318864     0.130153761595
H     -2.685525976994    -1.576326504436    -0.463951427752
H     -0.882449958391    -1.574891456012    -0.521369572457
H     -1.755313676382    -2.798269792268     0.491612958806
N     -1.682806510248     0.557225198214     0.726836528113
C     -2.540282964090     1.502202301216     0.886301462116
O     -2.356463655850     2.731656091307     0.353805828128
C     -3.784914192737     1.346217685743     1.657465456296
H     -4.376636931136     0.531367670557     1.209823412899
H     -3.509431841723     1.137834380463     2.705234895115
H     -4.354544848038     2.293259208797     1.614763706371
N      1.721026721337    -0.386168499094    -0.936155385665
C      1.684586766990    -0.460496952782    -2.305165686624
C      2.701131316330    -1.091389786057    -2.994002227690
C      3.760227922430    -1.656081065961    -2.319733360997
C      3.769577017118    -1.585063382781    -0.952761484455
C      2.707119323252    -0.940975075960    -0.283296867714
H      0.855723733610    -0.034635591896    -2.854014530129
H      2.661091726358    -1.137761443508    -4.070071247483
H      4.563704726890    -2.151820819069    -2.858132471168
H      4.556368244206    -2.014787033109    -0.364964611362
O      2.821015162395    -0.950065919036     1.033215035062
H      1.952664269149    -0.697445806914     1.553301388312

