# STO-3G

title

0 1
C     -0.079449864211     3.499011520044    -0.082080831210
C     -0.001500220917     4.909215862650    -0.194229928697
C     -0.743639454587     5.600315855893    -1.165765767561
C     -1.571872938335     4.888407515257    -2.054713857549
C     -1.645471167251     3.483749101846    -1.962960691761
C     -0.909304333359     2.791639540128    -0.988624916383
H     -2.859685847750     0.124766249755     0.114775126426
H      0.641331870921     5.462795285254     0.488221986949
H     -0.674492748876     6.683194010889    -1.232191459088
H     -2.143650961207     5.417817201930    -2.813016395564
H     -2.266826933985     2.926899897590    -2.660364554230
H     -0.965888468367     1.708359702215    -0.954833270152
C      0.709434872112     2.846250812806     0.987182743488
H      3.200252856677     1.970802863319     0.974803862113
H      1.316380569116     3.530786019022     1.575522352307
C      0.543872263012     1.532765982947     1.462121144197
H     -0.193366120239     0.895821890339     1.005071339572
C      1.078102939418     1.038405446438     2.740382552859
O      2.064451290214     1.650933318138     3.233980123253
O      0.865445348554    -0.312034537647     3.048743884413
C      1.370797755887    -0.751370728248     4.315919268852
H      1.118025122943    -1.824598155331     4.455872712080
H      2.478144896985    -0.647693122378     4.363196695612
H      0.902142070825    -0.175971482416     5.146441972850
Pd     2.182318989988     1.454548977198    -0.030590741424
C     -0.640135706600    -1.432144201130     0.205989320926
O      0.387460499205    -2.103788186079     0.394108877742
O     -0.860974155781    -0.662176333245    -0.898265589072
C     -1.813116576282    -1.341878927885     1.211264479990
H     -1.394943398050    -1.381414053275     2.220968741626
C     -2.789795811950    -2.485810256516     1.045326853994
H     -3.580131530648    -2.409835274204     1.820528225372
H     -3.264966272387    -2.421682871033     0.045107630366
H     -2.265725583921    -3.458048248663     1.152303206836
N     -2.553177390230    -0.089186411556     1.057151013394
C     -2.608471298596     0.861389255427     2.030099301392
O     -2.002236537286     0.814699925905     3.126960249452
C     -3.446642643795     2.035820970686     1.712640381845
H     -4.470440306581     1.678155243169     1.515490722074
H     -3.429579296261     2.723861696020     2.574983741283
H     -3.025605491350     2.532859466623     0.822080983093
N      3.408960894249     0.527002047624    -1.437093845802
C      4.713436699662     0.243187637254    -1.724004590670
C      5.011769965090    -0.602819587563    -2.775176352728
C      4.005645059262    -1.165414048874    -3.538639478037
C      2.702024166493    -0.864529174097    -3.232716396661
C      2.438556411033     0.001506707184    -2.152353944821
H      5.507601406643     0.679778499947    -1.129627016037
H      6.042127507175    -0.826946078874    -2.998913051541
H      4.241847465006    -1.832096706608    -4.363934788929
H      1.874591516528    -1.265844307775    -3.781937958127
O      1.205839276171     0.294193457370    -1.840234541590
H      0.003384773759    -0.430273347519    -1.431059394285

