# STO-3G

title

0 1
C      0.538016083942     3.669379521485     0.377407399999
C      1.282093411721     4.638653215697    -0.340938271750
C      0.661879046936     5.460135132017    -1.295166272190
C     -0.720311884821     5.333663559401    -1.538670692312
C     -1.472727772936     4.387967687108    -0.814199719300
C     -0.854756465345     3.561429035428     0.138917512399
H     -3.776822127202    -0.816059120983     0.052593156338
H      2.350755283211     4.736233805340    -0.156063739664
H      1.247767324051     6.192566211109    -1.844807756758
H     -1.204981687746     5.967196140526    -2.277544213963
H     -2.542406634592     4.299721240386    -0.988210543656
H     -1.452000551928     2.864566047720     0.719828856376
C      1.242448029910     2.838395512688     1.382006519164
H      3.303133102543     1.174949495982     1.198272908659
H      2.149287034751     3.286614040020     1.784585665754
C      0.725159731673     1.675857539030     1.979270663684
H     -0.258337429745     1.321394836586     1.706485742510
C      1.256780358954     1.073694420770     3.211417072111
O      2.466587127041     1.286598900176     3.497109696326
O      0.586316672290    -0.036366787325     3.747062661775
C      1.168765464926    -0.618255273231     4.921623319870
H      0.533729889298    -1.464276274148     5.263829468002
H      2.187076856629    -1.014549120180     4.708264747485
H      1.223611555657     0.127306443962     5.747119447905
Pd     2.105175499336     1.072396504357     0.275895059957
C     -2.166066743178    -0.733763564343    -1.731601658804
O     -3.301702486462    -1.183783274724    -1.983060103031
O     -1.244164898422    -0.457167529020    -2.662794159640
C     -1.762392793436    -0.439887033550    -0.254144914066
H     -1.198979669336     0.494236508989    -0.202208478072
C     -0.933073773564    -1.556391535103     0.349091660883
H     -0.658096993078    -1.292061152770     1.391230829886
H     -1.542663815695    -2.484198507161     0.371487373663
H     -0.013777975545    -1.730152827339    -0.244337327403
N     -3.003277516529    -0.334656212723     0.506485092074
C     -3.148437183750     0.487445147810     1.560692697342
O     -2.231570343936     1.222855284204     2.023271443684
C     -4.477136984284     0.528816763046     2.205097764706
H     -4.341655191239     0.246990674683     3.261855181877
H     -4.848462672834     1.563311309892     2.125092903026
H     -5.174258794947    -0.168986945381     1.707904031863
N      3.051899448681     0.004659147978    -1.222949725887
C      4.273309359442    -0.521365808338    -1.533751199322
C      4.429628809092    -1.231255855923    -2.707657977077
C      3.367265444240    -1.411289546508    -3.573120231193
C      2.149887133728    -0.871403967054    -3.240418154146
C      2.029132520446    -0.151906855754    -2.032764955259
H      5.111471332526    -0.384526422727    -0.860294700519
H      5.394190630825    -1.647110672061    -2.951724554095
H      3.493039280959    -1.968035469184    -4.498432797925
H      1.292824725310    -0.974163747068    -3.877799782969
O      0.880449342680     0.364002058410    -1.695738012123
H     -0.345736878676    -0.056316089466    -2.283593009082

