# STO-3G

title

0 1
C      0.404462830379     3.455422198815     0.380093882827
C      0.989710786922     4.447878083468    -0.444905286946
C      0.236832089313     5.095184571479    -1.437393210964
C     -1.120391613099     4.764267726666    -1.618171708384
C     -1.718781074399     3.792865189089    -0.791693321550
C     -0.966443180909     3.147419865989     0.202747722603
H     -3.867387324240     0.119689432446    -0.197688514097
H      2.040772125357     4.699788161541    -0.312430116268
H      0.703486762576     5.847000950889    -2.068816166038
H     -1.704624569716     5.251928260179    -2.394114731437
H     -2.765443916248     3.535872704089    -0.931361149476
H     -1.444184191988     2.422218552508     0.853595072440
C      1.246853679727     2.812523411686     1.415156375952
H      3.412835647746     1.149516866537     1.328779025551
H      2.122543098122     3.394938006943     1.699104505471
C      0.898927312490     1.684119981949     2.180508487533
H     -0.033268707775     1.160049661963     2.013149453057
C      1.569477777795     1.319539356765     3.440331615689
O      2.755621142521     1.710938032170     3.616573128116
O      1.049443199117     0.259993822075     4.198145630179
C      1.767114364289    -0.073316801310     5.394542602570
H      1.243028461644    -0.904333160119     5.914909556988
H      2.801453554310    -0.410669382083     5.158535215498
H      1.807119792037     0.797337861672     6.087723554959
Pd     2.198301497694     1.020976394384     0.432592789005
C     -2.205309520552     0.392041571604    -1.949011263931
O     -3.388437354556     0.682564488658    -2.219966779448
O     -1.171270061010     0.611695720308    -2.773176089237
C     -1.865106782663    -0.271779411944    -0.581315250539
H     -0.954781425609     0.161256389613    -0.164823303345
C     -1.671242479263    -1.768791949778    -0.707903418865
H     -1.417868525522    -2.192448622426     0.285896977554
H     -2.618808041041    -2.228351737250    -1.059112928124
H     -0.854300432910    -1.996144058082    -1.422577258345
N     -2.996867038581    -0.030788337217     0.306942749204
C     -2.849271792201     0.209576290332     1.623957978952
O     -1.739680505691     0.250235867326     2.221497210918
C     -4.079494815322     0.463238896662     2.402273637238
H     -4.119786367005    -0.283657289768     3.211690614079
H     -4.001384477404     1.481117577987     2.817498471598
H     -4.973009008404     0.378750280182     1.758277646436
N      3.085497795121    -0.147146711155    -1.035987551551
C      4.266928444901    -0.763452640159    -1.335058436070
C      4.383830953998    -1.476361583613    -2.512260064497
C      3.321343990129    -1.571667399273    -3.391295357893
C      2.142952580700    -0.945782737939    -3.068428386899
C      2.062557229152    -0.228331889612    -1.856674893011
H      5.105477887098    -0.691877500846    -0.652044745497
H      5.317695805600    -1.961407777866    -2.747741610912
H      3.416913842840    -2.130209338254    -4.319094135546
H      1.286835590654    -0.979646002892    -3.713306493753
O      0.953863880283     0.369807670435    -1.529922575548
H     -0.236857684790     0.499517077877    -2.306343229284

