# STO-3G

title

0 1
C      0.552843367759     4.072091069367    -0.148790109346
C      1.594859136416     4.924770037852    -0.593044314426
C      1.418294088980     5.759768140587    -1.706879289660
C      0.190815889645     5.755308914755    -2.398293949779
C     -0.851321109142     4.910285018168    -1.966880911546
C     -0.677538127634     4.075714449692    -0.852636116863
H     -1.795983110883    -0.528975177995     1.754619549205
H      2.545575520851     4.926678439899    -0.061847809212
H      2.228035134294     6.406350126712    -2.035430394597
H      0.049053032545     6.397889730709    -3.263922905744
H     -1.796774771553     4.894710274999    -2.502417905688
H     -1.497320714154     3.430822096323    -0.552266788496
C      0.801564184195     3.242659504912     1.049054614689
H      2.094334433915     0.800106532319     1.478843526025
H      1.719692815377     3.486300006051     1.582708958879
C     -0.116952813642     2.369989047500     1.660497062996
H     -1.103433109245     2.236308244664     1.242202920355
C      0.012181622470     1.930716299841     3.059069742695
O      1.168578699697     1.744028392858     3.527151922013
O     -1.127556648691     1.517845233440     3.763618399005
C     -0.943415467640     1.259654036621     5.162688207818
H     -1.913381125975     0.945012290276     5.605778258288
H     -0.205742570650     0.443079647255     5.328684672747
H     -0.603954012630     2.178682290294     5.691704366484
Pd     1.278681087403     1.202430830583     0.266163100174
C     -2.125106528690     0.432412463352    -0.472531796161
O     -2.844873980627     0.908654578940     0.431108380754
O     -1.926887657216     1.066877247252    -1.645797383961
C     -1.412387655604    -0.931476586016    -0.257112165314
H     -0.470369064992    -0.987150302522    -0.802524283695
C     -2.287111301063    -2.088789288317    -0.690796968525
H     -1.743096980283    -3.043588459258    -0.534350748502
H     -3.210657247922    -2.100306461012    -0.074133478772
H     -2.553698465881    -1.991767823443    -1.763349487195
N     -1.150751187950    -1.060084956943     1.175827429453
C     -0.066789370037    -1.712639097470     1.666058201525
O      0.817336192386    -2.267185638130     0.967679364338
C      0.058831210538    -1.768080045452     3.138392834902
H      0.128818501103    -2.831796207742     3.421807451023
H      0.979175621339    -1.233623189226     3.423337300637
H     -0.824216250430    -1.313781454780     3.621967788025
N      2.078471774543    -0.200477077863    -1.020147964688
C      2.916629131931    -1.278579349000    -0.988829524614
C      3.063329909889    -2.056199876236    -2.122329322820
C      2.355888005201    -1.770071598211    -3.274152917586
C      1.496010923790    -0.699427410052    -3.269156043829
C      1.376595102631     0.071921530772    -2.095294729071
H      3.473688758790    -1.509005979804    -0.088163988064
H      3.727903139456    -2.904207881686    -2.096388850654
H      2.469866058950    -2.386504562770    -4.161988330719
H      0.911548540480    -0.428470922266    -4.125042615174
O      0.513530204528     1.053281634259    -2.052891772913
H     -0.953057319536     0.980967860722    -2.012552478991

