# STO-3G

title

0 1
C      0.193356903118     3.919831750731    -0.499675023399
C      0.599432050059     5.257829486003    -0.734150877004
C      0.044239753840     6.007702662899    -1.783166844518
C     -0.924946370451     5.425363788660    -2.623233952775
C     -1.328376744964     4.092508045554    -2.403801785013
C     -0.779648088338     3.339423636858    -1.353262216068
H     -2.767810741743     0.445930583761     1.206571816474
H      1.353040090409     5.708390142750    -0.089725870563
H      0.364330129253     7.033695707422    -1.946805584416
H     -1.356252899011     5.999482801264    -3.439903975732
H     -2.068956254608     3.636094865851    -3.056010906623
H     -1.096750636185     2.310974147598    -1.215098594710
C      0.810385586138     3.207076706707     0.639079234205
H      3.150206442155     2.152580440209     0.663399433711
H      1.529076128163     3.803688100017     1.197801092598
C      0.408835948865     1.974890863609     1.181053595211
H     -0.425123396549     1.444645184923     0.748069574629
C      0.878116176295     1.457850732411     2.474049495782
O      2.016786633853     1.822388226707     2.874956626266
O      0.291633351058     0.284718208276     2.963907394570
C      0.840111101653    -0.248051357402     4.177087898316
H      0.267185309264    -1.158322563416     4.465596656231
H      1.905024679878    -0.540566677747     4.039089197899
H      0.756889931120     0.487929866644     5.007875253318
Pd     2.096437372905     1.517275737465    -0.226795813683
C     -1.409180619461    -0.822321272518    -0.327520196018
O     -1.646640066764     0.386521990433    -0.591230701979
O     -0.510295819280    -1.566498567736    -0.973662130610
C     -2.110726842728    -1.505791966214     0.857501385089
H     -1.388529015539    -2.109969787157     1.415817580045
C     -3.260565059944    -2.389401341836     0.424292356406
H     -3.707506287799    -2.873331800672     1.317481854207
H     -4.035384890161    -1.764599680184    -0.066230368444
H     -2.904182379858    -3.171605873622    -0.276735965295
N     -2.633829545564    -0.432536317637     1.702347577780
C     -2.631620521197    -0.538709408225     3.056576146699
O     -2.304006450561    -1.569800587649     3.693192284269
C     -3.062938954002     0.658115905692     3.813263128952
H     -3.930723845119     0.364977940195     4.426219237719
H     -2.219355083270     0.960198199620     4.453305221716
H     -3.338630868572     1.477537893033     3.126091242765
N      3.374305612945     0.446711737384    -1.458129562820
C      4.704453404424     0.248220107207    -1.694869095651
C      5.098034241351    -0.720524492683    -2.597805126356
C      4.162065169902    -1.485185616883    -3.268929148033
C      2.830816512275    -1.265087018677    -3.016698566909
C      2.468584853542    -0.266820664698    -2.089173309822
H      5.444182324237     0.844255803518    -1.173074038040
H      6.148643515913    -0.876636491578    -2.783093060904
H      4.473564001891    -2.243517659028    -3.982737892451
H      2.055030480049    -1.815329599092    -3.510307589823
O      1.209258470630    -0.041942604890    -1.835626615899
H      0.184804591063    -0.974562748822    -1.508105865757

