# STO-3G

title

0 1
C      0.511234539061     4.186082328055    -0.331807552833
C      1.423110951506     5.234896675145    -0.610190916676
C      1.341520457271     5.967476772818    -1.805112400981
C      0.340925785440     5.660677097239    -2.748114652278
C     -0.569731035015     4.618515892467    -2.481708509711
C     -0.492228801935     3.884444145898    -1.286923039886
H     -1.724635910264    -2.979402280770     0.042026106524
H      2.200588201755     5.470636837891     0.115323187276
H      2.049928504217     6.768963112714    -2.001067286899
H      0.272858584823     6.222985965611    -3.676703685617
H     -1.340550560910     4.373390013828    -3.208610771332
H     -1.201091761284     3.081268198943    -1.110733027738
C      0.643717807025     3.476949823337     0.962404598597
H      2.390377358109     1.667735503123     1.734018242769
H      1.378161858075     3.915469502439     1.635727426214
C     -0.234861088553     2.500658280599     1.469519260159
H     -1.080503065787     2.167649453448     0.886709894247
C     -0.274124309556     2.097138668875     2.882790042277
O      0.792254939767     2.147015319963     3.557639109251
O     -1.465508211142     1.591326965834     3.429687249441
C     -1.387176784570     1.116734730957     4.779962720207
H     -2.386207567590     0.746476696168     5.095722948463
H     -0.664416872362     0.273543925211     4.858684928753
H     -1.084768105044     1.935784142108     5.470929493939
Pd     1.517212381424     1.467678132408     0.507813379186
C     -2.143672717350     0.040564005127    -0.757538134670
O     -2.355280771757     1.251300811373    -0.541041199912
O     -1.339172191218    -0.438654174202    -1.728057457071
C     -2.752737460555    -1.128741230876     0.067536904346
H     -3.440472983067    -1.674670142462    -0.590384968517
C     -3.504389242266    -0.675551255810     1.299502690146
H     -3.891859968403    -1.559871555485     1.845199593887
H     -2.823690162509    -0.109605775907     1.966809758961
H     -4.351855387421    -0.020993530506     1.009598077706
N     -1.688501971703    -2.061646046152     0.464190299037
C     -0.518082061910    -1.647624700702     1.014064047176
O     -0.282379942348    -0.474658968154     1.391740845123
C      0.523841058543    -2.684780924066     1.162223467081
H      1.408097200740    -2.237779994782     1.646988418555
H      0.103953079934    -3.493359771860     1.783904373475
H      0.781341412059    -3.057810648077     0.155279458084
N      2.705577741067     0.077827470210    -0.497469954474
C      3.834511854113    -0.671492293880    -0.330973129964
C      4.138616156787    -1.659472961444    -1.247691394824
C      3.322337840337    -1.886592696472    -2.339705641485
C      2.199106824265    -1.113499139645    -2.491885020612
C      1.920923955335    -0.115523670097    -1.533779444649
H      4.478980124417    -0.499326509599     0.523173443861
H      5.028181128386    -2.252984611127    -1.111614603588
H      3.565347031894    -2.660269546362    -3.063446620064
H      1.526614846554    -1.233068034057    -3.317758243894
O      0.849929254499     0.620191730816    -1.662153586270
H     -0.434118958452     0.099328033967    -1.871128352132

