# STO-3G

title

0 1
C      0.459860463465     4.084501198117    -0.222958295702
C      1.435897638829     4.865049322420    -0.896702240544
C      1.081128563869     5.701371122999    -1.966710359385
C     -0.263614479467     5.776247463829    -2.378861599016
C     -1.241017853644     5.005823855449    -1.716838731524
C     -0.889611377518     4.165806449819    -0.649945147910
H     -2.798022988353    -0.830687254893     1.321760947171
H      2.475182231928     4.814266616256    -0.573602632044
H      1.842507983865     6.289189851885    -2.473583650861
H     -0.545658899316     6.420915547511    -3.208116051657
H     -2.277067151734     5.047211437517    -2.042315914970
H     -1.660588246528     3.568490796070    -0.173883941429
C      0.912865027584     3.260335340722     0.918307594288
H      0.890106535217     0.036732735544     1.030768217454
H      1.925456627438     3.496921864794     1.252502332314
C      0.145001507455     2.401257569115     1.713062051620
H     -0.906441944245     2.252207443105     1.512054512731
C      0.613107060579     1.926769503136     3.025060040647
O      1.852869860050     1.779948707176     3.202534226458
O     -0.319352345841     1.426016528878     3.947212664891
C      0.218166952867     0.992340557197     5.204744788734
H     -0.608738610621     0.629787078872     5.852937802019
H      0.940546343225     0.156724944314     5.060960828314
H      0.725379747339     1.833686737491     5.729306250785
Pd     1.307011671788     1.236398336047     0.068086048418
C     -1.918204928283     0.766566433723    -0.666941466934
O     -2.684312873121     1.381949021236     0.114847117599
O     -1.387650588353     1.293498094111    -1.761572972631
C     -1.533799454983    -0.715307986047    -0.350180791156
H     -0.467687036342    -0.866548463226    -0.523403062696
C     -2.307301197407    -1.699628931503    -1.199793252011
H     -2.003744719807    -2.734344047292    -0.937878779932
H     -3.393658697376    -1.586015863605    -1.001705359235
H     -2.104807212988    -1.522470366677    -2.276646727062
N     -1.834518341670    -0.999976676845     1.051430058789
C     -0.911350174266    -1.177182927190     2.004462060300
O      0.349980675381    -1.063476478796     1.851765683458
C     -1.424387792443    -1.556141302656     3.332838715057
H     -2.019449102058    -2.477642104915     3.215293076458
H     -0.572225064662    -1.728027104914     4.011023444014
H     -2.057109285691    -0.729956008405     3.703671870570
N      2.020078009729    -0.290299890612    -1.100081565845
C      3.106257282075    -1.002064015157    -0.666317335265
C      3.681908095578    -1.950010382555    -1.482507032153
C      3.173069930041    -2.200941676599    -2.736434132514
C      2.074514949395    -1.494915688145    -3.147841680115
C      1.490497918463    -0.530344939514    -2.293958645417
H      3.519795119887    -0.809616562270     0.317212498260
H      4.540404676309    -2.500246170405    -1.132191486780
H      3.627826402032    -2.947935201616    -3.381982465700
H      1.626759194971    -1.655256051061    -4.108832087389
O      0.438910192976     0.044633191208    -2.761828131831
H     -0.537652739775     0.754014077502    -2.204955505826

