# STO-3G

title

0 1
C      1.709498899780     2.832477213172     0.003215657312
C      3.078526403178     2.573095461289     0.228401459189
C      4.036810179799     3.576703620472    -0.022497239977
C      3.637443810097     4.834574011118    -0.514141031247
C      2.274206348499     5.084473417827    -0.757029203771
C      1.307369306267     4.088322264804    -0.499362079215
H      0.270915410700    -1.088670929204     0.478902999225
H      3.408050685720     1.597327460308     0.580487957366
H      5.089472565493     3.368748380526     0.157578895724
H      4.378849627320     5.605327955165    -0.710242253962
H      1.956294167721     6.050218495746    -1.144854742383
H      0.261949212108     4.303944519364    -0.713089361315
C      0.192647980622     2.089611188625     2.551607829872
H     -0.151060682747     1.276508608478     3.181077907994
H      1.200223496396     2.452952872556     2.725820786800
C     -0.694084508112     2.814894903385     1.763611680777
H     -0.357475938375     3.721101195347     1.290827236554
C     -2.152886857159     2.613281434816     1.722720124199
O     -2.821872169550     3.282682857115     0.893373317559
O     -2.744467997706     1.606653090375     2.498193026141
C     -4.164798085623     1.456161194643     2.368836350636
H     -4.504128211691     0.627426783825     3.028709460296
H     -4.692103127565     2.386253043296     2.679205189097
H     -4.444805924874     1.200376467268     1.322037424772
Pd     0.471543215817     1.301250529921     0.420977430002
C     -1.982322893343    -2.607257737258     0.288551130021
O     -0.854075255392    -3.240416035369    -0.159633393153
O     -3.057075491930    -3.205662683406     0.409657533693
C     -1.857866155913    -1.080712229301     0.618709470946
H     -2.594168719523    -0.874649692700     1.398218367169
C     -2.160790919743    -0.234432842146    -0.598529959676
H     -2.029154017411     0.837918367084    -0.366258478389
H     -1.482210468754    -0.509849220347    -1.429705311173
H     -3.209485402647    -0.402886480603    -0.921302900764
N     -0.503537514852    -0.734950036201     1.112115105660
C     -0.245785263753    -0.981498718021     2.460182220613
O     -1.098244354701    -0.998092982599     3.364618474123
C      1.174138539337    -1.232463245483     2.798211894645
H      1.782003224309    -0.379278049826     2.462415366974
H      1.258045769204    -1.375751450469     3.890276449192
H      1.490040276671    -2.152318765011     2.272316661048
N      1.033395959313     0.475993538756    -1.458665155980
C      1.121727146522     1.280763612850    -2.566204277853
C      1.548532400124     0.767146623675    -3.772252781068
C      1.896169371584    -0.557953295011    -3.888836512920
C      1.789585954865    -1.356203142696    -2.784094888340
C      1.344860930066    -0.809360386332    -1.557417690704
H      0.830851283936     2.320754314164    -2.511120083752
H      1.611694816785     1.415452226202    -4.630969487712
H      2.235810614739    -0.963551727096    -4.838271296796
H      2.031431708066    -2.399835863552    -2.812488575242
O      1.234407220737    -1.646247375265    -0.577393988083
H     -0.028017990036    -2.696830899758    -0.353894704963

