# STO-3G

title

0 1
C      1.256168390532     2.778786911486    -0.119267708120
C      2.664825722912     2.876701998480    -0.103029647714
C      3.293931621193     4.057076462465    -0.548721367273
C      2.524425942391     5.138178925635    -1.021684463040
C      1.121937839783     5.031832537740    -1.049472405402
C      0.483497838247     3.853475473675    -0.602779551441
H      0.600806295552    -1.381180518504     0.745896722210
H      3.274256100686     2.045038076257     0.244671919959
H      4.379564016326     4.126244815505    -0.528035221483
H      3.011104070200     6.048642800461    -1.362711478576
H      0.517145800135     5.861051751788    -1.410610063342
H     -0.601519206420     3.797297757293    -0.647608389088
C      0.462893213192     2.038484851342     2.569994625498
H      0.944156287261     3.003077881918     2.467938853875
H      1.003714275809     1.289418010073     3.138661784465
C     -0.880412560874     1.840511404710     2.265926141206
H     -1.338987778481     0.901290801113     2.538107178510
C     -1.832633452273     2.894354294426     1.877379491864
O     -1.448044977000     4.089206586837     1.786792287347
O     -3.124692707752     2.512336496020     1.481699154131
C     -4.011316880607     3.579571932953     1.116400253033
H     -5.000673943863     3.157104324505     0.836004082262
H     -4.163495569644     4.277674891472     1.971082187775
H     -3.614617652793     4.145483842274     0.243178836563
Pd     0.476144026383     1.041485259078     0.519015998242
C     -1.521825619743    -3.064372842639     0.666897377043
O     -0.373653478701    -3.594103472836     0.148000479535
O     -2.528432606102    -3.757093178145     0.856443438350
C     -1.520900800526    -1.533005852837     0.999215955890
H     -2.215364599584    -1.395644078382     1.832410381178
C     -1.998575587666    -0.714398369480    -0.179738776728
H     -2.001062880213     0.362406350949     0.074439276708
H     -1.339280594758    -0.887729414391    -1.052702798305
H     -3.033357307324    -1.013979854933    -0.448762077948
N     -0.170714468677    -1.060940260112     1.398560469797
C      0.163619709335    -1.139760601481     2.746230256678
O     -0.635367361900    -0.952421627950     3.683039966249
C      1.579800746068    -1.450232926607     3.041256618195
H      2.225761212803    -0.720836325218     2.527144599494
H      1.731426029712    -1.422452038746     4.134938391470
H      1.788036182981    -2.464645234375     2.654824984732
N      1.053174894066     0.188101817154    -1.349800685012
C      1.004977290091     0.924340755989    -2.508075133782
C      1.462634275325     0.394552005362    -3.695695161084
C      1.977571964074    -0.878456019151    -3.746340006515
C      2.003659919089    -1.612756610314    -2.594197768622
C      1.523277310151    -1.052663325026    -1.386889957232
H      0.580674040782     1.918413606370    -2.511279765350
H      1.417312484353     0.990481894934    -4.592700906426
H      2.341866960715    -1.295778948924    -4.681457038654
H      2.376475843566    -2.617293836104    -2.570718778460
O      1.544631275091    -1.842911983396    -0.362356059645
H      0.395375304229    -2.984610505494    -0.088140081366

