# STO-3G

title

0 1
C     -0.392268479272     1.642452196428    -1.808003143799
C     -0.161347217565     3.033839812966    -1.842014277443
C     -0.550193762515     3.788480789352    -2.968919799577
C     -1.167742386118     3.160724748110    -4.067897230513
C     -1.398065861003     1.771320864997    -4.037323962507
C     -1.007581759685     1.010946423139    -2.914569382044
H      1.519413264577    -0.813394916314     1.539864409967
H      0.294075044108     3.540486023710    -0.993532065173
H     -0.377225182710     4.862842938794    -2.979791918301
H     -1.468499423990     3.746592232568    -4.933631838776
H     -1.877554383541     1.279143739141    -4.881604188649
H     -1.184302884961    -0.063460896625    -2.911275434049
C      2.299881938089     2.360740406471     1.754812701542
H      3.132781737565     1.703712459104     1.993033955397
H      2.388635499004     2.944392072108     0.842578202458
C      1.175593307897     2.412107079589     2.502043809529
H      0.346384148088     3.037928633172     2.190782897966
C      0.939574082727     1.599593603070     3.705630839422
O     -0.245027723256     1.505823799384     4.131227027368
O      2.003901495596     0.938440260673     4.340291738877
C      1.630059896610    -0.129187460088     5.221047649462
H      2.546512322997    -0.593216383322     5.643348794896
H      1.005192430870     0.245787677065     6.062308892737
H      1.074427918726    -0.919153417932     4.663482478607
Pd     0.063839796339     0.560696700649    -0.195900951915
C     -0.979558299375    -1.026947550839     2.169863082570
O      0.178817809535    -0.589113558504     1.664020409457
O     -1.131128223519    -1.894792987187     3.046191386024
C     -2.215367559044    -0.308584262114     1.500838274100
H     -3.001218390438    -0.198475890949     2.257885586345
C     -2.723617691529    -1.123707511804     0.329580810366
H     -3.708664615941    -0.759503896634    -0.015315617524
H     -1.997070219262    -1.091710326543    -0.506498237671
H     -2.856585564854    -2.182199541226     0.641001718578
N     -1.712570094428     1.030232226960     1.017850617886
C     -2.464374189003     2.151442392703     0.592290987253
O     -2.082425620798     3.300007230059     0.857054529034
C     -3.653064984723     1.939251522181    -0.248979891877
H     -3.355058257427     1.363202652065    -1.140644416379
H     -4.421672820238     1.425298350685     0.349988001594
H     -4.036799482308     2.927208535795    -0.567133487574
N      1.979686588119     0.048905106267    -0.892013208793
C      2.424762202514     0.361217523701    -2.154374811517
C      3.734087334385     0.124470649857    -2.517542138201
C      4.617407824327    -0.435215707556    -1.626282616223
C      4.159956479351    -0.753189485934    -0.380008602518
C      2.811048370518    -0.505009191309    -0.035816011838
H      1.761083413134     0.794536202020    -2.887398324270
H      4.064051127267     0.380181899576    -3.510940640669
H      5.650199445265    -0.624472435373    -1.906289452048
H      4.789804971581    -1.200162777483     0.363310768211
O      2.519715799320    -0.865486569015     1.188876686228
H     -1.091926237312     1.397538538064     1.748486719297

