# STO-3G

title

0 1
C     -2.377899013940    -0.797849097834     0.213164772935
C     -2.832291565863    -1.966618577291     0.857900682716
C     -3.461177542170    -1.880570303944     2.115828401420
C     -3.638189237714    -0.624818235251     2.731431644090
C     -3.188990706689     0.544920466815     2.085896373922
C     -2.561336045525     0.457877520528     0.826950959790
H     -1.888482725157    -0.873977923223    -0.753385128080
H     -2.687100268895    -2.935358814136     0.385582726961
H     -3.809474759408    -2.784076444111     2.611103099763
H     -4.125259417348    -0.558207192855     3.701889372826
H     -3.332028050519     1.515391288955     2.556514576376
H     -2.217599016267     1.359730847188     0.323795411519
C      2.967848173062    -1.340258657458    -2.218772171181
H      3.518850523085    -1.320166587097    -1.281765817702
H      2.576463135072    -2.308981404015    -2.514591087040
C      2.750200208896    -0.235045814680    -2.970046296928
H      2.171016186865    -0.311589855567    -3.881943769562
C      3.187425939379     1.125382832753    -2.620865747969
O      3.714932485071     1.348060844072    -1.495242700518
O      2.902798389081     2.173561984730    -3.513194007747
C      3.284762712638     3.487027736857    -3.081832376668
H      3.014914781377     4.224968975618    -3.867924343655
H      2.750033888638     3.766105018360    -2.145816867288
H      4.384210346471     3.544731075847    -2.913870198978
Pd     0.716448424932    -2.125941268229    -0.359137910062
C     -0.110335978243    -4.409984873725    -2.353107017351
O      0.475767021103    -4.021029357957    -1.296236120232
O     -0.607598159582    -5.486130705322    -2.714550165505
C      1.597247310346    -1.382641762454     1.452310972101
H      2.670953696208    -1.482892436249     1.607045487256
C      0.719001292620    -1.510838306846     2.654828434888
H      0.950228493757    -0.692688505530     3.366180427880
H     -0.348475102455    -1.438064166002     2.358016439706
H      0.896568816263    -2.490164756639     3.142627324415
N      1.110190961076    -0.453594456194     0.545894550961
C      0.949347400306     0.726479972157     0.084662529227
O      0.373350129351     0.963345026115    -1.101039723917
C      1.378675692040     1.884587519045     0.866582721838
H      0.854953589899     1.854639335305     1.837035866605
H      2.471333361501     1.806281515571     1.004075151829
H      1.130543301494     2.810234254355     0.316796613818
N     -0.183931248502    -3.282217512757    -3.575729588353
C     -0.254061269159    -3.759950216959    -4.876195077783
C     -0.439479902103    -2.892554057293    -5.931951323146
C     -0.577572124754    -1.545006090649    -5.718646832025
C     -0.508327515351    -1.074792679665    -4.437167595982
C     -0.306718335249    -1.968291634747    -3.354945027650
H     -0.145404879629    -4.819768753716    -5.080513516007
H     -0.489917671481    -3.288106034383    -6.932644066856
H     -0.737842069506    -0.865973145293    -6.551773459977
H     -0.622363306038    -0.032479349620    -4.221394556642
O     -0.259160295183    -1.406177077204    -2.206326245489
H      0.123888373642     0.123463468428    -1.616385290682

