# STO-3G

title

0 1
C      0.273560862099     3.753408996133     0.453626417483
C      0.967339789701     4.748312337424    -0.279067526512
C      0.274859281492     5.652262605381    -1.099707341554
C     -1.129790714097     5.580639135063    -1.189566029363
C     -1.828354955949     4.602633168460    -0.452880093836
C     -1.138530896816     3.691269948320     0.363438653988
H     -2.065872362441     0.696280148986    -1.172427135572
H      2.053414885909     4.804328396982    -0.210378370040
H      0.820858395696     6.407749132622    -1.659590023318
H     -1.671982730413     6.281991351216    -1.819835037471
H     -2.913257915830     4.554871402657    -0.510370787330
H     -1.684603043793     2.942394306163     0.932980142116
C      1.058978431759     2.857211740677     1.326718576128
H      2.892465740992     1.781832835272     0.176803360972
H      2.068466196828     3.214358658092     1.527013572273
C      0.585882850442     1.744694715801     2.031883676011
H     -0.455508433476     1.448518042331     1.987297419197
C      1.418484026143     1.009687470939     2.989946051207
O      2.631349091084     0.847175555681     2.667915740723
O      0.803117771576     0.168736405244     3.928973488617
C      1.678563882406    -0.659874903773     4.706028554010
H      1.073980476675    -1.258546866687     5.421688174698
H      2.237748427959    -1.367956712198     4.053425557364
H      2.395919069907    -0.041426296496     5.291333751962
Pd     1.683916364933     0.819774058202     0.234257508723
C     -1.006756932167    -0.464166714559    -0.065651279578
O     -1.099731225302     0.506631877999    -1.021820375447
O      0.135450273593    -0.700019271453     0.407716909386
C     -2.309300993134    -1.196359196392     0.285026560304
H     -2.174822313933    -1.554186003003     1.316754617850
C     -2.564808383899    -2.370583653130    -0.632287020542
H     -3.480558988660    -2.900612012693    -0.298553338168
H     -2.732406291414    -1.996257925029    -1.663685640756
H     -1.705907587850    -3.072357180392    -0.616493337870
N     -3.448591064503    -0.273597210015     0.125394997923
C     -3.350687404441     0.779037211566     0.933895368690
O     -2.325698562379     1.101756296632     1.668060321210
C     -4.514692169923     1.680876410978     0.919544627631
H     -5.394705957975     1.094380839698     1.230999979929
H     -4.326142011057     2.516123520346     1.615149532854
H     -4.640719067633     2.049081963180    -0.113183312317
N      2.606716787768    -0.315863284005    -1.214035576919
C      1.927637269938    -0.710626607157    -2.336459984253
C      2.566360036198    -1.494656492940    -3.276916922529
C      3.875514823218    -1.888379578357    -3.091116115247
C      4.522930126685    -1.479004255199    -1.952240897515
C      3.832378408548    -0.683036567033    -1.020512363698
H      0.901495092061    -0.399515845822    -2.491376353656
H      2.030224655994    -1.800873148942    -4.161066156335
H      4.380344259391    -2.508042955259    -3.827798954503
H      5.537626015003    -1.755157770600    -1.743048340154
O      4.535767715460    -0.343473343235     0.055814975255
H      3.986136638295     0.225760897141     0.667000797857

