# STO-3G

title

0 1
C      0.333911986049     3.146406505181     1.036472658514
C      1.754949868114     3.525427502366     0.810518484929
C      2.238873949590     3.713345719072    -0.448086753687
C      1.339608937964     3.666129869683    -1.620748897297
C     -0.077137770264     3.787774575781    -1.395001128194
C     -0.543900894455     3.229876474235    -0.176341824292
H     -2.961730213293     0.521528417607     0.267167472920
H      2.411381432215     3.614260361273     1.675351241271
H      3.293424703981     3.918033200572    -0.613948042005
H      1.749307943910     3.951653077314    -2.586009761827
H     -0.760250802952     4.111717603028    -2.174016231521
H     -1.616428307148     3.136718145211    -0.016962791591
C     -0.336097331944     3.429771751970     2.400748105532
H      0.262853567705     3.941609584272     3.145614405647
H     -1.379336166163     3.723257528117     2.383693354058
C     -0.001156845105     1.990380673629     2.063415263530
H     -0.817432447927     1.378033175604     1.717802880672
C      1.020395391815     1.196424245911     2.787224885608
O      1.866145647043     1.771093259741     3.527274116201
O      1.024126638513    -0.198231801090     2.621631124437
C      2.078262987006    -0.909656430527     3.282259620523
H      1.976382234163    -1.995101584847     3.067164400286
H      3.072848113515    -0.574987926217     2.909990184753
H      2.022819777723    -0.764045072796     4.384797755713
Pd     0.348708544371     1.660941047557    -1.499788800236
C     -0.833405494714    -0.773562294743     0.070966958484
O     -1.075488491893     0.213722293676    -0.732343260494
O      0.256390199765    -1.448999859156     0.128488630455
C     -1.953841347669    -1.110596135169     1.082931052202
H     -1.503374866486    -1.282161088332     2.065311146276
C     -2.744509533097    -2.337563585193     0.685545775762
H     -3.504203884570    -2.552110376923     1.465500874990
H     -3.264034892462    -2.144116729499    -0.274896266885
H     -2.070126332145    -3.212496199684     0.582240039156
N     -2.870830648722     0.028505411591     1.151185545273
C     -3.289286478509     0.547636229055     2.334783504918
O     -2.955253102937     0.119062835675     3.464985084432
C     -4.197455080090     1.714290078695     2.258518480210
H     -5.129609088046     1.435691124317     2.777573912372
H     -3.705048317429     2.548551406865     2.782786082269
H     -4.410452510724     1.980218029409     1.208703108091
N      1.645165323113     0.463157488637    -2.673681356155
C      1.811037546276     0.855465235866    -3.974716368920
C      2.867178639277     0.371899329514    -4.716876915416
C      3.758314119255    -0.521107394057    -4.164857256901
C      3.559626892145    -0.918708019887    -2.870136206067
C      2.459752256753    -0.412303496689    -2.140874858715
H      1.120803283869     1.565784329333    -4.414726840955
H      2.993759621482     0.694634080081    -5.737561992169
H      4.593583956112    -0.906226708667    -4.743988159921
H      4.208123576096    -1.621217314533    -2.384935575155
O      2.359476466215    -0.884316966736    -0.924592205580
H      1.383651471570    -1.048145098508    -0.450016982013

