# STO-3G

title

0 1
C      0.566721562359     3.127852520259     1.196562864892
C      1.882295569785     3.632282031508     0.720198144150
C      2.108689123485     3.842103999369    -0.605502001547
C      1.012774159207     3.693367010254    -1.586324235220
C     -0.344993309480     3.752120532039    -1.090613499137
C     -0.541318352716     3.190324732195     0.194202212775
H     -4.050663346358    -0.345182901953     0.283371741512
H      2.674711509641     3.789394241328     1.451152979289
H      3.091380241698     4.138141946011    -0.964574163737
H      1.209479161725     3.993888596382    -2.612536643435
H     -1.180574967051     4.045864905164    -1.718537646709
H     -1.547756174499     3.031566001017     0.569321051729
C      0.162112872671     3.289773280125     2.682065821147
H      0.841902090707     3.855717131069     3.309700782958
H     -0.893062114286     3.435632571966     2.879262018978
C      0.558636730077     1.905682568368     2.220153493793
H     -0.265089774096     1.235845453810     2.041079458582
C      1.785665395509     1.205152285036     2.671057523363
O      2.724504426693     1.851080825702     3.214953118826
O      1.843592493315    -0.192637276275     2.548882739546
C      3.098408493107    -0.802546120501     2.875881268589
H      3.020134844156    -1.900222944732     2.722964373637
H      3.905517674133    -0.418782903885     2.211870517034
H      3.365875418950    -0.613290501952     3.939909420532
Pd     0.141505770776     1.659993194888    -1.317302974933
C     -1.110133309242    -0.670840951877     0.327880779154
O     -1.321531257872     0.225405485542    -0.567429505325
O      0.016514398791    -1.248856441597     0.572284932496
C     -2.297666076044    -1.050960200635     1.257469699659
H     -1.929258508615    -0.941831416046     2.283256012619
C     -2.765954451123    -2.476047325924     1.058279985624
H     -3.589062922854    -2.696083647434     1.769242938527
H     -3.142528986792    -2.601924239218     0.023115432828
H     -1.930103750163    -3.183180790751     1.239538971903
N     -3.433382666604    -0.157040317826     1.062968485646
C     -3.430075420261     1.091002978767     1.593056722206
O     -2.530093216290     1.552078376460     2.338257539429
C     -4.592513068582     1.935592252683     1.247333782927
H     -5.500401480117     1.410842820241     1.589691279142
H     -4.487788831846     2.906340302590     1.761859759840
H     -4.606692704165     2.071673510660     0.152613620025
N      1.387518132923     0.383365585842    -2.458904212988
C      1.553545320105     0.684464210353    -3.783603855620
C      2.579015593967     0.109388133275    -4.503207890059
C      3.439975927017    -0.781706159095    -3.902603304289
C      3.243532215087    -1.083853397849    -2.581968545946
C      2.176021113804    -0.484269276416    -1.874811254071
H      0.886110099863     1.391386633295    -4.262477016036
H      2.705570578848     0.359618266932    -5.543958057207
H      4.251483510018    -1.237838060398    -4.463607737802
H      3.871942484278    -1.776074996437    -2.057568336100
O      2.084306105996    -0.864475569973    -0.626349358687
H      1.125172076064    -0.937496110765    -0.079143013518

