# STO-3G

title

0 1
C      0.302381828451     0.488093728363    -2.944025492978
C      0.687792824934    -0.694443200180    -3.608944123267
C     -0.041957474750    -1.136508408941    -4.730201461896
C     -1.149519027988    -0.397069255548    -5.191900977998
C     -1.522809569301     0.794175538171    -4.538232220409
C     -0.794436069057     1.237151501887    -3.416550784350
H      0.860655541076     0.823708364647    -2.074454681689
H      1.547933666247    -1.260241790061    -3.261753034435
H      0.257011469784    -2.047949939683    -5.242419513354
H     -1.709149334706    -0.739087744956    -6.059699570801
H     -2.364973311585     1.377219843475    -4.904551863620
H     -1.069945045839     2.171122723570    -2.927526939150
C      2.407103115763     1.717583366988     0.073192544582
H      2.435378398782     1.799310501588    -1.008990107994
H      3.202140791731     1.127366433388     0.515094144902
C      1.511520759679     2.415972743794     0.857411371391
H      1.591536464667     2.328458546866     1.928727973421
C      0.512557331047     3.372448166558     0.314939518707
O      0.182976501304     3.263870607094    -0.892452994212
O     -0.119105966007     4.361012641749     1.096356144509
C      0.364915717125     4.599879263936     2.425428856786
H     -0.183007084074     5.466016147533     2.856112711942
H      0.170742883759     3.729971560971     3.090356089488
H      1.448616612725     4.854536178553     2.418666907149
Pd     0.814319252387     0.056835273429     0.566177625481
C      1.987689190567    -2.215001852117    -0.705610102662
O      2.327599780294    -0.953190091709    -0.359079021595
O      2.651646103793    -2.925740496485    -1.483156223738
C      0.662844906975    -2.733517689180    -0.039154075434
H      0.833477060725    -3.785344113741     0.224262090147
C     -0.520194385289    -2.659722176306    -0.975683262260
H     -1.416181940537    -3.080763591637    -0.475243679262
H     -0.729744987562    -1.604382048509    -1.240936239508
H     -0.314376891807    -3.235965325175    -1.902070995411
N      0.376024587469    -1.849731525556     1.101433644583
C      0.356699726312    -2.159306138208     2.378295480711
O      0.375991537135    -1.310728743909     3.363472710783
C      0.312232263380    -3.578184180646     2.785745909474
H     -0.554444377794    -4.054096139010     2.295670269295
H      1.263153249307    -4.056497893576     2.497998346187
H      0.194058115793    -3.640279818975     3.884145859744
N     -0.949777223677     0.875852304879     1.223914384858
C     -1.930370421411     1.091486663787     0.293421482343
C     -3.092076785368     1.737770409836     0.659475774308
C     -3.277511750596     2.170624967720     1.954590305622
C     -2.295815796176     1.914976881842     2.876823588100
C     -1.125976176990     1.232463832679     2.477590265194
H     -1.783357292677     0.773832455478    -0.731057701007
H     -3.848595517027     1.925227055241    -0.084774048766
H     -4.186433532912     2.693192403831     2.240315730704
H     -2.388690882301     2.205059231696     3.903383804139
O     -0.239056704980     1.002415216794     3.395180839096
H      0.206607690339    -0.169152853348     3.323728831292

