# STO-3G

title

0 1
C      1.232680220394     0.178070653919    -2.214146005888
C      1.868218809014    -1.040359691559    -2.530016257758
C      1.732652512153    -1.585371662778    -3.822075817109
C      0.967203566706    -0.914985466941    -4.797130388553
C      0.340984378492     0.307845828062    -4.483584428888
C      0.476123744252     0.854560315715    -3.192189410316
H      1.332861348246     0.589799065773    -1.213375695942
H      2.462110212259    -1.557690243022    -1.781724665032
H      2.223035325941    -2.525363620288    -4.063898974361
H      0.865279716821    -1.338127597551    -5.794193082031
H     -0.240140078242     0.830824676764    -5.240061712877
H      0.004209335503     1.806337943011    -2.957839310235
C      2.333937231748     1.397113364208     1.239839684213
H      2.751925580964     1.357462398292     0.239603729901
H      2.814927615086     0.757834326725     1.972037326252
C      1.346334774319     2.282927938118     1.609543703970
H      1.018513483437     2.332857720594     2.639784103111
C      0.788320760881     3.324284911035     0.730196478718
O      0.066745703072     4.225171864070     1.231961567569
O      1.038987858492     3.275713226806    -0.653992156581
C      0.479085153426     4.348136555053    -1.425266513708
H      0.759799479718     4.222485494854    -2.493079704464
H     -0.632348130750     4.350782039809    -1.349515330585
H      0.873574194696     5.331075853545    -1.080052507658
Pd     0.420860610458     0.014426089246     1.236625857649
C      1.610991792697    -2.520585946398     0.642808630989
O      1.986804780789    -1.271624512437     1.001704343321
O      2.401885799884    -3.388933296635     0.229784436027
C      0.071479718975    -2.793038358099     0.774923323241
H     -0.037144159733    -3.816387751084     1.156597877866
C     -0.641297644746    -2.699544737498    -0.554069544187
H     -1.714523342763    -2.944497166698    -0.417067454224
H     -0.563565804366    -1.669597302383    -0.954496996726
H     -0.193914548067    -3.409176888335    -1.281401091594
N     -0.484045796773    -1.748886839204     1.649097753358
C     -1.032169130571    -1.895183976141     2.839096135815
O     -1.237040003153    -0.944267658668     3.693785196772
C     -1.471097709052    -3.236554663994     3.276601139035
H     -2.153639227881    -3.646047325311     2.512415088511
H     -0.579614985218    -3.869724897725     3.417401415774
H     -2.007260202553    -3.147780694471     4.240416262218
N     -1.304527884801     1.130035247082     1.124588825223
C     -1.828893439395     1.361145803443    -0.117543119318
C     -2.879824500206     2.241053169630    -0.268462137029
C     -3.421115388194     2.879951004347     0.827537377232
C     -2.915450144498     2.591940354643     2.067798815232
C     -1.843917827288     1.681437015451     2.190295052325
H     -1.401405556303     0.872343988980    -0.983010897174
H     -3.275052831741     2.433586526747    -1.251823385374
H     -4.242143246535     3.582420294259     0.712805832463
H     -3.300221317735     3.040242797447     2.961247591966
O     -1.436244812369     1.412778628955     3.393959119550
H     -1.194896089215     0.250860565877     3.544287023863

