# STO-3G

title

0 1
C      1.683324801137    -0.395877345389    -2.170733008285
C      1.517490641606    -1.632037064318    -2.829288827387
C      0.888071157276    -1.681916365725    -4.088450165220
C      0.432257878010    -0.495795431272    -4.698537040805
C      0.617275198104     0.742892362425    -4.053056550693
C      1.245708573308     0.791595930226    -2.792719801339
H      2.161798676651    -0.379119036387    -1.196566758828
H      1.886518886301    -2.542116946174    -2.361692239565
H      0.762986663169    -2.636596433313    -4.594766083090
H     -0.048619267460    -0.535167764457    -5.673624482392
H      0.287246736732     1.661811726571    -4.533017550070
H      1.398292477704     1.757229094551    -2.311265438650
C      2.363535614062     1.412911327045     0.748447408549
H      2.478434089343     1.558982682166    -0.319922255793
H      3.019542789372     0.680304673585     1.204139083810
C      1.540530953397     2.216417005867     1.507385951509
H      1.518621931078     2.124396403796     2.585480633249
C      0.796492270969     3.366658852838     0.963637563957
O      0.258833284323     4.179602417884     1.759464468671
O      0.730682840939     3.554785524030    -0.430835854072
C     -0.029079440289     4.688910919047    -0.870958978327
H     -0.022506617436     4.730417846364    -1.980988016708
H     -1.086784832692     4.611787783949    -0.530752121117
H      0.413033675735     5.634931578508    -0.483555554387
Pd     0.501195627028     0.008877923118     1.167141713449
C      1.674254789946    -2.565355024264     0.792862738953
O      2.062756915888    -1.308262419328     1.110554487976
O      2.448335408396    -3.451478590929     0.385978073556
C      0.135845770887    -2.826411689886     0.974334999353
H      0.040456024927    -3.811427100014     1.450138289591
C     -0.604083511869    -2.858912917905    -0.342426900781
H     -1.673119355100    -3.092745099998    -0.159872219130
H     -0.541990295975    -1.868163623788    -0.835491763460
H     -0.170792438422    -3.633570744894    -1.008888879660
N     -0.411651904560    -1.709313480125     1.755200801499
C     -0.957479700522    -1.749585031554     2.954184631627
O     -1.188820727174    -0.720243241616     3.703597085750
C     -1.352809199505    -3.050918575926     3.532229340915
H     -2.032396320938    -3.554998679222     2.824175350761
H     -0.441530681833    -3.640979902369     3.724546665853
H     -1.880159713420    -2.877981161947     4.489487904097
N     -1.199449393293     1.108637020961     0.846477261180
C     -1.591831695352     1.244648642742    -0.457607497894
C     -2.667764094246     2.047913182497    -0.773148253419
C     -3.358203909990     2.714552922937     0.215927344047
C     -2.964601872271     2.542074411647     1.516106552481
C     -1.874061878661     1.694880535650     1.812916224003
H     -1.050364200760     0.731008660218    -1.240855066790
H     -2.963529326764     2.155191144459    -1.803547141573
H     -4.200993012306     3.355407899813    -0.028581230846
H     -3.462866422678     3.022502691582     2.334124667619
O     -1.593616915851     1.535633364435     3.067875609273
H     -1.256377040624     0.445784507047     3.381461933542

