# STO-3G

title

0 1
C      1.208103086205    -0.143338708366    -2.451317924977
C      1.417284410171    -1.487056982628    -2.824679970573
C      0.900393054386    -1.962681692261    -4.045973468228
C      0.182246918834    -1.098073434094    -4.896430856353
C     -0.009773247916     0.249519677669    -4.531751091538
C      0.506811530802     0.726732961622    -3.310869038461
H      1.601273101180     0.218618967967    -1.505433420768
H      1.979628224488    -2.152828311663    -2.175683172779
H      1.063620612658    -2.998783285598    -4.333042804324
H     -0.212970031828    -1.467269003627    -5.840307121069
H     -0.545315213717     0.923265431692    -5.197041848896
H      0.380929184982     1.774937801689    -3.042389753494
C      2.661933250481     1.063837996543     0.940363694027
H      3.028720687321     0.914552936442    -0.069766215783
H      3.106187870878     0.426647339173     1.697072214295
C      1.787116339143     2.072803532162     1.281539679034
H      1.513538032213     2.226161359956     2.316784737633
C      1.284300387738     3.096325523235     0.349849540935
O      1.406934777578     2.925170470518    -0.893139714055
O      0.592537556690     4.202581982480     0.870493519658
C      0.063905196897     5.123865282835    -0.092777121175
H     -0.460911322942     5.947156073019     0.437725245590
H      0.880748489065     5.567864883176    -0.705669746682
H     -0.669867048622     4.619128790337    -0.760751641363
Pd     0.612545876162    -0.083600556091     1.068296509739
C      1.447754553755    -2.748185586532     0.463166321694
O      1.998471478907    -1.550446897008     0.763857721798
O      2.088700506994    -3.710222802942    -0.000030498471
C     -0.094810889956    -2.839594723891     0.741748797479
H     -0.278996872431    -3.834574294994     1.167293611826
C     -0.915681594455    -2.698535187320    -0.518692246543
H     -1.991303487309    -2.819714803575    -0.276088008404
H     -0.765872735148    -1.692284328997    -0.957911759873
H     -0.618844912292    -3.469884748092    -1.259959788696
N     -0.447586249774    -1.717891865323     1.624261404089
C     -0.903215393487    -1.769070668453     2.858267258741
O     -0.934255245074    -0.775857769656     3.692079396725
C     -1.437920920942    -3.041757245589     3.384487406114
H     -2.225729428520    -3.398265778599     2.699054878515
H     -0.607998656336    -3.762412451884     3.471084426474
H     -1.872313752836    -2.868191506544     4.387207127160
N     -0.989728273172     1.205514918398     1.032696210133
C     -1.584424848190     1.435658204608    -0.177914644833
C     -2.586574930972     2.377994874672    -0.282697795707
C     -3.002666755136     3.085545120191     0.825154693169
C     -2.414859808054     2.814787463494     2.032814698243
C     -1.404185936505     1.831617383398     2.112657725769
H     -1.254180526434     0.892850470490    -1.054122586785
H     -3.041261551283     2.561552049708    -1.242205825833
H     -3.787560891858     3.832668459934     0.745057975273
H     -2.703285306471     3.314218833697     2.935424851541
O     -0.924096109316     1.576695914499     3.291177222117
H     -0.786723865889     0.381858729639     3.482311791739

