# STO-3G

title

0 1
C      0.030505261239     0.830728523125    -2.974841454087
C     -0.121124437803    -0.439948418812    -3.567069396844
C     -1.296417367223    -0.753904573686    -4.277873357476
C     -2.319606033027     0.206884737744    -4.409275794639
C     -2.158518464688     1.487495517109    -3.842927900861
C     -0.982780164847     1.799562306763    -3.130884199047
H      0.938393737398     1.050011572335    -2.421146423432
H      0.682267268455    -1.169009044119    -3.485766471314
H     -1.407985340230    -1.733154329765    -4.738423417809
H     -3.223293474331    -0.032136033415    -4.965909975047
H     -2.934381542006     2.240183768768    -3.968490013327
H     -0.853594953897     2.800438313257    -2.721781674061
C     -0.087097710830     2.803918848387     0.335653598595
H     -0.344492992222     2.905719450388     1.387075247150
H     -0.905853240732     2.893890995662    -0.368533628354
C      1.218052594512     2.722854523935    -0.097663448595
H      1.451762562466     2.722164067752    -1.150447750915
C      2.389437616375     2.761843201696     0.794094066396
O      3.512836799380     3.075027231310     0.319501101511
O      2.214504156435     2.513826739567     2.167602385007
C      3.409128794350     2.517989362120     2.960485793996
H      3.148406154853     2.300591530753     4.018656056121
H      4.118870670131     1.735310313019     2.607645343542
H      3.906782621196     3.513448456597     2.921016293289
Pd     0.326988862096     0.477843710045     0.382975526547
C      2.433606245876    -1.203624635015    -0.541273735913
O      2.187728653152     0.114556059831    -0.350757457344
O      3.370483808916    -1.639509486737    -1.234670057070
C      1.427395213806    -2.167204204032     0.186583785241
H      2.036580342810    -2.954596642399     0.650089424832
C      0.456443788542    -2.813637867345    -0.774349806434
H     -0.173098457691    -3.545171621643    -0.227398956712
H     -0.206055339666    -2.040835603866    -1.211894506754
H      1.005937100096    -3.337916661677    -1.584087455087
N      0.639916955234    -1.368269516231     1.132572509832
C      0.529638060127    -1.508041837507     2.441051352541
O      0.024155809599    -0.633680408976     3.245699452116
C      1.004719175829    -2.756197817403     3.074565386615
H      0.508321940134    -3.608444453022     2.580274011136
H      2.101687693992    -2.802958457696     2.976098542414
H      0.736695229907    -2.743023489763     4.147823151242
N     -1.708820969960     0.521162287120     0.721473072105
C     -2.501646603394     0.249959280796    -0.360359987190
C     -3.854475744857     0.512570860820    -0.302855305509
C     -4.421598556801     1.024031050762     0.844876440891
C     -3.612293961357     1.248950010867     1.927973279237
C     -2.233510841454     0.958648316740     1.839990012658
H     -2.064653237393    -0.154256375138    -1.263841690862
H     -4.468097035633     0.312188540161    -1.165968205511
H     -5.487264323220     1.231398325642     0.894285256815
H     -3.991465906265     1.621112258019     2.858654690189
O     -1.531381179657     1.156401658465     2.918764481200
H     -0.677086897713     0.392422185801     3.035156238830

