# STO-3G

title

0 1
C      2.456514143645    -0.295491636141     0.670673289489
C      3.648697016329     0.226298455059     0.081013301489
C      4.292285328254    -0.475817010078    -0.944661876419
C      3.791554531802    -1.737342372232    -1.385145519047
C      2.641950783126    -2.276445884512    -0.803927071759
C      1.948074716890    -1.549153752988     0.210736289501
H      1.994261712592     0.211680038313     1.515986105880
H      4.050165360565     1.171386925606     0.434442395949
H      5.191031007164    -0.068298843125    -1.400316075482
H      4.314413555059    -2.278810084836    -2.168746794492
H      2.265073959949    -3.245795811365    -1.117484848461
H      1.100889914126    -1.994330320932     0.723086499627
C      1.056347587209     2.985049949642     0.672842687552
H      1.399340818542     3.529409310074    -0.204922256359
H      1.798143093719     2.461329039653     1.266885816953
C     -0.244326388253     2.916912969146     1.041125147489
H     -0.514836829955     2.313307261559     1.894601285467
C     -1.359907970410     3.547522895085     0.318357589845
O     -1.126938384803     4.295056334180    -0.671375634716
O     -2.671492063885     3.299976896559     0.753220571362
C     -3.713557381840     3.690788075117    -0.150675741643
H     -4.698292761380     3.428590775207     0.291962252433
H     -3.691751755179     4.788631286149    -0.333338737749
H     -3.617982040113     3.146848034819    -1.118826854240
Pd     0.939032312893     0.276254294987    -1.008603357730
C     -2.001022759616    -0.087591529757    -0.304715651540
O     -0.708807629594     0.044398782245     0.120808938295
O     -2.892726627001    -0.235103516209     0.552258878575
C     -2.344937275349    -0.048745112921    -1.818285931671
H     -3.427601257717    -0.212262176657    -1.822049132145
C     -1.696421956770    -1.184679851555    -2.596099177823
H     -2.093754756739    -1.188511793042    -3.632746339298
H     -0.600059835467    -1.049213432685    -2.640960576679
H     -1.931970758326    -2.159303267445    -2.119864818161
N     -2.122130031178     1.217551371225    -2.525688325728
C     -0.996844336202     1.788142177215    -2.773499784918
O      0.263045836067     1.440085301511    -2.418841806596
C     -1.071854199534     2.986268188886    -3.620779691219
H     -1.518541281886     2.691312663758    -4.584524663089
H     -1.721385771718     3.716359005048    -3.108869030081
H     -0.063088632505     3.411523216011    -3.764713820654
N      0.976204858946     0.944333253016     3.346654338598
C      1.552547809960     1.580207471801     4.413641017945
C      1.510682634941     1.002900865025     5.669919318000
C      0.882956326477    -0.211011030712     5.861318836244
C      0.304785227738    -0.820577183492     4.778476828313
C      0.369444410740    -0.180939323895     3.521901144577
H      2.050870053247     2.531353287102     4.267392007218
H      1.969863066686     1.509619433437     6.502464546570
H      0.843982704406    -0.669666446898     6.845684139175
H     -0.211191354173    -1.756692117057     4.851605362248
O     -0.236425669448    -0.857885967896     2.536612703910
H     -0.419045542141    -0.360286277313     1.678800306765

