# STO-3G

title

0 1
C      0.298207790190    -1.590076508961     3.125205752367
C     -0.515300551949    -2.760503537829     3.058415802776
C     -1.553534575578    -2.939899270882     3.977825469717
C     -1.786557571623    -1.974760844711     5.000458335064
C     -0.985409640118    -0.831947036683     5.091322155861
C      0.058855510392    -0.619495653474     4.143854064094
H      1.159161450058    -1.487539605798     2.477305003206
H     -0.326995230658    -3.489636857159     2.276457432102
H     -2.183468394827    -3.823469259536     3.919260621574
H     -2.589604438531    -2.134535782625     5.715035632834
H     -1.151263868485    -0.102534123389     5.878792798292
H      0.732858171101     0.224787639987     4.247477684679
C      3.173575207636    -0.893020698351     1.008603372810
H      3.314668576804    -1.973707639583     0.998922785086
H      2.932776183708    -0.430170278008     1.961855015763
C      3.294730404719    -0.110404979066    -0.093208018464
H      3.117469369990     0.949555910903    -0.006019281792
C      3.594975644853    -0.600295692676    -1.449145727479
O      3.707433516452    -1.840580539407    -1.656654592427
O      3.766257222915     0.330751131242    -2.490037399549
C      3.946469365325    -0.222142831218    -3.800488835963
H      4.064814306779     0.603898598391    -4.533758938952
H      4.860281157763    -0.857209793850    -3.839536258242
H      3.059466208938    -0.827377412340    -4.096136805753
Pd    -1.054959234136     0.029187040479     2.095018586270
C      0.789359293866     2.188638261273     1.024251355564
O      0.630318531119     0.998709033114     1.650027106374
O      1.957960955603     2.614797004303     0.876176613934
C     -0.404574994693     3.059277315907     0.528239882403
H      0.111008598033     3.878819817710     0.017095961813
C     -1.191511584118     3.656723266837     1.686716379549
H     -1.957699649771     4.354231141620     1.288330999004
H     -1.699621120703     2.859078698355     2.261061245845
H     -0.512306965887     4.219769342623     2.360289198548
N     -1.335080078507     2.493398893523    -0.454822493907
C     -2.174428835222     1.542093048845    -0.239755323832
O     -2.373364644538     0.800267774714     0.875559196878
C     -3.117969691140     1.234205357528    -1.323528003970
H     -4.132146802031     1.471732234226    -0.964535566252
H     -2.866621611450     1.846905740441    -2.208393178009
H     -3.028829132504     0.162569541054    -1.563548622632
N      0.554763997329     0.091442796583    -1.602602769139
C      0.212841461829     0.687584152247    -2.785362918984
C     -0.654723019476     0.042508706503    -3.653941161839
C     -1.187354252613    -1.189463638697    -3.325971844552
C     -0.851961033349    -1.742541788670    -2.115104765474
C      0.047693598245    -1.041298282030    -1.286081177287
H      0.632920095785     1.652699914022    -3.043395506955
H     -0.908649014244     0.512315198154    -4.589236572488
H     -1.863672966751    -1.701835905754    -4.004649026181
H     -1.220123369864    -2.693991780863    -1.790544294335
O      0.351493774793    -1.658123369630    -0.113794759974
H      1.070540845497    -1.143811041539     0.329815093189

