# STO-3G

title

0 1
C      2.371216426761     3.477172221009    -1.564144963848
C      2.343299907026     4.294893099673    -2.711901709449
C      3.196942206475     4.015904194476    -3.798173974059
C      4.083694366970     2.922341452963    -3.734025926451
C      4.120547055295     2.111914256601    -2.581484972176
C      3.266299650402     2.390287864360    -1.496038318185
H      1.709134862624     3.692774782578    -0.730926362563
H      1.666958337393     5.145904561806    -2.757734505983
H      3.178223506089     4.649929595044    -4.681812646546
H      4.747900219284     2.709436089283    -4.568620646090
H      4.810685573343     1.272780342674    -2.526633255581
H      3.306786623597     1.762297533377    -0.607381232652
C     -0.980600020800     2.494518669188    -0.187013058462
H     -1.945706821070     2.736477913119     0.246598041417
H     -0.799483297641     2.816038672647    -1.206864692315
C      0.068163837896     2.045100143759     0.624311774588
H      1.059533112301     1.928899744715     0.214342616921
C      0.005530189561     1.966158928339     2.095965293823
O     -0.963163117177     2.492767596836     2.709071662932
O      1.180248520065     1.603598572166     2.779132820893
C      1.169883213712     1.799238177039     4.200607431572
H      2.138990140503     1.460023642445     4.625808037721
H      1.039382026782     2.876943859600     4.448838856298
H      0.355354356323     1.211987570350     4.679737620333
Pd    -0.810315633931     0.300626466422    -0.511330180298
C     -3.311006880794    -2.072504134726     0.985864957921
O     -2.097188314874    -2.503212791158     1.493148615877
O     -4.244956803254    -2.827154436895     0.704200091548
C     -3.251249025525    -0.522133589660     0.870572433047
H     -3.939270042896    -0.091882398850     1.617227217793
C     -3.653417554643    -0.031938423883    -0.501965616386
H     -3.543250268198     1.068632554694    -0.558183428331
H     -3.025007309389    -0.518481371504    -1.276880544527
H     -4.715032024845    -0.293853167334    -0.694993216057
N     -1.848421290102    -0.140958617201     1.149435298917
C     -1.229023704073    -1.266938409564     1.857029927812
O      0.065621896664    -1.544249182913     1.406236219623
C     -1.212234219364    -1.049800986108     3.341994117635
H     -0.170415059363    -1.079336632724     3.706422184343
H     -1.661032251142    -0.067377022962     3.572609243009
H     -1.794585488467    -1.851138729356     3.829367281225
N      0.271363936588     0.179310830606    -2.363383991755
C      0.951411019702     0.800629649733    -3.371970514786
C      1.600571827064     0.040735236025    -4.328615393218
C      1.568843254087    -1.340744185406    -4.279317713712
C      0.873040929728    -1.945832513919    -3.262862779637
C      0.225889052242    -1.133982436061    -2.311312555172
H      0.967652031056     1.880706704243    -3.429701514139
H      2.141182095461     0.539833355549    -5.115914810261
H      2.080975595816    -1.934854981809    -5.031446990641
H      0.796934457466    -3.009725789253    -3.162764378260
O     -0.445478989567    -1.687894971340    -1.324022627389
H      0.032325068132    -1.883921752884     0.473502143107

