# STO-3G

title

0 1
C     -1.282111372370     3.906248295773    -0.323881429914
C     -1.849476673768     4.027761817808    -1.616657427344
C     -2.877449926537     4.951636156154    -1.872161002314
C     -3.356482497663     5.776753670026    -0.837246286795
C     -2.795893413973     5.671301555156     0.453120795135
C     -1.769759249050     4.748519978508     0.707675209333
H     -1.485771839009     1.123781176761     1.003631764430
H     -1.486943800019     3.382021130700    -2.414273007099
H     -3.301579850836     5.027425124483    -2.870528482825
H     -4.151280800901     6.493261104726    -1.030691927365
H     -3.158767993281     6.311968117756     1.253688914746
H     -1.343138082140     4.692508121608     1.706340292536
C     -0.216311973050     2.905850821118    -0.125431505646
H      2.221809562619     0.882449696547    -2.429785570874
H      0.079996559627     2.380698290174    -1.033174599223
C      0.374452596297     2.564625856942     1.051104143601
H      0.098290945864     3.037150580682     1.983591166409
C      1.422933308388     1.546567988516     1.175496516502
O      1.830441309926     0.925886659260     0.148495623469
O      1.999187235979     1.326596897125     2.439069214611
C      2.897365761083     0.214168958603     2.543599988114
H      3.313938107594     0.175861548889     3.573149532999
H      2.358070281628    -0.741680745622     2.362295491945
H      3.746768302627     0.313278632671     1.830412275996
Pd     1.383098882941    -0.243130088845    -1.832979540667
C     -1.069713518974    -0.501982724269    -1.077650750601
O     -0.236667151777    -1.472675786588    -0.800126617774
O     -0.704567648645     0.404586079724    -1.941233901645
C     -2.347430559893    -0.382488550902    -0.240272707950
H     -2.732934338267    -1.385467000068    -0.031277702573
C     -3.421320825417     0.476345220655    -0.866929633849
H     -4.318737081688     0.473479855870    -0.214817110526
H     -3.055500376322     1.520990150678    -0.950863245570
H     -3.691778224765     0.089342912673    -1.869913212687
N     -1.952062000213     0.219929583672     1.038443277089
C     -2.033914708422    -0.490871027544     2.198630861742
O     -2.483793840457    -1.652783354345     2.301492516229
C     -1.561560225218     0.222818097351     3.403519795836
H     -2.145727428768     1.154577153875     3.491089304643
H     -1.726067901662    -0.425108496930     4.281447715098
H     -0.488652070129     0.442205826879     3.278510995381
N      3.087291406987    -1.250106527816    -1.331982842526
C      4.296814562373    -1.050080899533    -1.941093609459
C      5.424175877913    -1.680572925042    -1.460487765914
C      5.346057115364    -2.518447703433    -0.370016855324
C      4.124112549028    -2.701256348109     0.221051143819
C      2.990636515252    -2.038829080623    -0.295369715413
H      4.369131385892    -0.396796432635    -2.802686038604
H      6.373585668659    -1.518686070160    -1.945602350657
H      6.230810807926    -3.021948328730     0.011330816087
H      3.995298945051    -3.344308889420     1.069985126740
O      1.883885646332    -2.298950102506     0.376315335521
H      1.001226512376    -1.945153727970     0.008249270940

