# STO-3G

title

0 1
C     -1.290525130920     3.943614637488    -0.340225795501
C     -1.901677340266     4.010593447119    -1.617087016256
C     -2.906219339576     4.955231963846    -1.889777324898
C     -3.316593128204     5.856416618207    -0.889329822762
C     -2.711030756663     5.805912366654     0.383970019854
C     -1.708785320990     4.861975095601     0.656161063712
H     -1.566508526569     1.138926561263     0.991376215908
H     -1.590559897521     3.307650140994    -2.387692181732
H     -3.364858145421     4.988713234532    -2.875162432220
H     -4.092293940340     6.589784857514    -1.096703914733
H     -3.019669896070     6.506084010603     1.157026167173
H     -1.244884190681     4.849536506657     1.639585968092
C     -0.256278820579     2.915115934463    -0.120397372425
H      2.175737830155     0.942026326375    -2.386402018022
H      0.006703572173     2.347023900268    -1.012312627318
C      0.336444749540     2.591970060863     1.060065304095
H      0.090645864194     3.105728176843     1.978708976916
C      1.335761439585     1.528225987106     1.208599385123
O      1.743053025240     0.894093422350     0.189880574936
O      1.869112678921     1.279620214303     2.485581401121
C      2.712857309671     0.126813111025     2.607041536035
H      3.093580490578     0.059657105374     3.648870123530
H      2.138527341992    -0.802709641308     2.396272813791
H      3.588559537788     0.195035679186     1.922701144123
Pd     1.354072289959    -0.217949612066    -1.833327667434
C     -1.090016901561    -0.532256869918    -1.079181451356
O     -0.247094231156    -1.505442715079    -0.845293976544
O     -0.745319059085     0.401686705694    -1.923078788937
C     -2.350504127025    -0.434422813853    -0.210997254405
H     -2.702264669544    -1.445340205749     0.015729652825
C     -3.458841600459     0.391530625957    -0.821896949834
H     -4.337445421513     0.382204353639    -0.144713720190
H     -3.117553258852     1.442138952160    -0.935969593171
H     -3.749156572789    -0.019721844761    -1.809596706320
N     -1.941197141450     0.195454544240     1.051765510672
C     -1.818322389889    -0.556067004017     2.185735653455
O     -2.078616203055    -1.776659866194     2.263516382632
C     -1.365281401376     0.154424688915     3.402441662707
H     -1.275500330599     1.236573895894     3.210323674949
H     -2.120912475242    -0.024884188380     4.184555375874
H     -0.392439753103    -0.270571615602     3.700962437524
N      3.074717072265    -1.202304664827    -1.346388659931
C      4.283020471087    -0.964008050924    -1.943993606595
C      5.421015191703    -1.579846777042    -1.469624120759
C      5.354909140067    -2.441247656453    -0.396857616805
C      4.133908310781    -2.662585034379     0.182816336756
C      2.989086811079    -2.014184534453    -0.326512324315
H      4.345989991814    -0.291840813260    -2.791690372656
H      6.369405341331    -1.387607360201    -1.945516192304
H      6.248192500119    -2.933237730924    -0.020434923693
H      4.014227321602    -3.325678973692     1.017549899818
O      1.885033447876    -2.313865847026     0.332548657670
H      0.996067757105    -1.971039502813    -0.030450087564

