# STO-3G

title

0 1
C      0.317194275710     3.770544734242     0.336264709757
C      0.795838137838     5.094706520110     0.183250102355
C      0.039807890314     6.070892411248    -0.488972178702
C     -1.215925936280     5.740448335172    -1.031981141746
C     -1.699203831762     4.422558963213    -0.898652576947
C     -0.943770095886     3.449063740107    -0.225979075332
H     -3.482820087631     0.348573713538    -0.256574024458
H      1.765343499140     5.360192855163     0.602297106777
H      0.427396987423     7.082405584424    -0.587940145428
H     -1.803444842658     6.491164529338    -1.555382823952
H     -2.660863849411     4.154847341150    -1.332443595267
H     -1.314314731819     2.430506420712    -0.165355530213
C      1.159750875194     2.794186766077     1.069650934375
H      0.128204703655     0.435931683738    -0.774701154634
H      2.142511674493     3.179298668393     1.350304381608
C      0.712522491739     1.606773480198     1.674193441304
H     -0.328692283931     1.331403296726     1.658382637542
C      1.540846382179     0.803769658896     2.582306797017
O      2.776388159112     0.762735144164     2.330462647049
O      0.925926056349    -0.212636101863     3.326979958448
C      1.802410269091    -1.142371440643     3.977809294005
H      1.194343566196    -1.880110494319     4.544960274196
H      2.411040562426    -1.701408148299     3.231051968948
H      2.474353532759    -0.619969876116     4.695418455554
Pd     1.872199718098     1.145484544046    -0.212228895350
C     -0.947734809849    -0.943286577836     0.204008232333
O     -0.855489382904     0.077197028457    -0.674209599613
O      0.020191640405    -1.656771181311     0.553293820891
C     -2.364801428154    -1.123419786171     0.782764162551
H     -2.234375902914    -1.362125699340     1.843208304937
C     -3.118764784191    -2.251290552931     0.112678306827
H     -4.110231454863    -2.369073128555     0.596961407403
H     -3.272013398079    -2.008048615252    -0.958623258571
H     -2.552902056846    -3.201371205488     0.204421904224
N     -3.158108209877     0.093692467754     0.667745165597
C     -3.103667847740     1.033711060149     1.657177147059
O     -2.392070132381     0.931120048690     2.682613502300
C     -3.949397468477     2.235226717159     1.491662478862
H     -4.638604185958     2.272555577749     2.351101758212
H     -3.282210825134     3.113406899094     1.501485088724
H     -4.517577177009     2.188318090698     0.546683712036
N      2.801521053172    -0.075543931874    -1.639299851764
C      3.473306146492     0.556276813641    -2.653269804873
C      4.350071526920    -0.150441290551    -3.448978076067
C      4.552038634270    -1.497318950286    -3.242011590011
C      3.855672549070    -2.108607569840    -2.233443076350
C      2.964383380556    -1.351481030163    -1.444723976879
H      3.324018679595     1.616901234795    -2.820585043538
H      4.878538063069     0.356721038248    -4.240311760411
H      5.240287899062    -2.061237349973    -3.866420165454
H      3.955703685314    -3.156482589241    -2.027780467777
O      2.334731893910    -2.070807648699    -0.529731657459
H      1.537404429649    -1.677632995747    -0.045804491715

