# STO-3G

title

0 1
C      0.490623735154     3.981198983143     0.116100050260
C      1.349234966438     4.857929420533    -0.592108595442
C      0.831754665605     5.894753195149    -1.385772301252
C     -0.561675206288     6.082630820142    -1.476779362083
C     -1.424054351344     5.231862292016    -0.756690441074
C     -0.908491260644     4.193066005192     0.037739176289
H     -2.544476154995     0.989242785724    -0.059188191481
H      2.427069325151     4.717070267504    -0.522478498741
H      1.507304675835     6.555588788330    -1.924415393789
H     -0.967905837029     6.887329891740    -2.085434890531
H     -2.499770467103     5.388172727806    -0.798369075742
H     -1.594954691544     3.584641619816     0.622016322725
C      1.094092415214     2.906944841393     0.942086547896
H      0.180704723044     0.357734545604    -0.970732247004
H      2.093910752301     3.127268372181     1.325541594978
C      0.397217970667     1.807605430743     1.458686152910
H     -0.650963904944     1.688367803405     1.246892174844
C      0.934779585840     0.901824385615     2.476923669951
O      2.163383249595     0.628397254946     2.397856548266
O      0.045003868695     0.043387141252     3.144311878213
C      0.644002260447    -1.021668063356     3.896028417617
H     -0.152461222044    -1.617115137028     4.391800834258
H      1.215787649645    -1.704680301513     3.226295855117
H      1.320437528708    -0.620802952926     4.684716016302
Pd     1.791486303638     1.171587288109    -0.229738597683
C     -0.971319942338    -0.999891739992    -0.020065897583
O     -0.788591204646    -0.053038834271    -0.967453225482
O     -0.054727557536    -1.693309181192     0.474905674287
C     -2.429675455397    -1.026594406462     0.485891102716
H     -2.448804313314    -1.626654107900     1.399035347919
C     -3.391734296230    -1.619587424701    -0.518735176960
H     -4.415967068680    -1.617546447784    -0.092831064975
H     -3.391532317940    -0.996295095773    -1.438034540562
H     -3.097064475442    -2.658841195860    -0.770734828340
N     -2.800308100495     0.374202861924     0.713296958779
C     -3.101854207749     1.030274687656     1.868063602678
O     -3.081794650370     2.282489619817     1.949972950704
C     -3.485205283946     0.224472533873     3.046292386360
H     -2.604531988300    -0.349811943740     3.375120586777
H     -3.796022514754     0.919024079001     3.846682434540
H     -4.326807263080    -0.429600124417     2.761534186801
N      2.851888390610    -0.072346202768    -1.535409587874
C      3.543118929278     0.540851752805    -2.547699952152
C      4.498435906861    -0.157819102948    -3.255431221316
C      4.758148011360    -1.479002443756    -2.963553985519
C      4.038902153639    -2.073877105478    -1.960967414108
C      3.067129797768    -1.325783677045    -1.264645625519
H      3.348518706456     1.581595384278    -2.780826457407
H      5.041977821995     0.334851106085    -4.045772040841
H      5.507695043953    -2.036668911114    -3.519246858436
H      4.179263218768    -3.103150977403    -1.694377515640
O      2.417149343517    -2.030059326944    -0.350275204820
H      1.575606923059    -1.644296579383     0.046706281079

