# STO-3G

title

0 1
C      0.316015743292     3.747464757487     0.339174581290
C      0.803977620541     5.071631078135     0.219764415148
C      0.071570514528     6.060733820991    -0.459642959955
C     -1.169112498295     5.743777525104    -1.043706903272
C     -1.660998667098     4.426103612365    -0.944411941991
C     -0.928884905814     3.439611513567    -0.264905388829
H     -3.342726295176     0.495912589184    -0.309450913658
H      1.761793221419     5.326940911055     0.670733948147
H      0.465754418829     7.071899761309    -0.532203452691
H     -1.738316983073     6.504636810778    -1.572586186774
H     -2.610489132006     4.168958895755    -1.410144374875
H     -1.304056957823     2.421333133490    -0.231862029369
C      1.132044177855     2.757728072710     1.084323680064
H      0.149480576526     0.410509253727    -0.826148646071
H      2.106902529665     3.134538145322     1.401200196968
C      0.661612371112     1.565111985606     1.660388252474
H     -0.379610421947     1.295171524691     1.605178589041
C      1.454151864983     0.748939405658     2.588391083432
O      2.698181256831     0.709177251769     2.383159510536
O      0.809420684155    -0.278663003999     3.290879298768
C      1.658335613654    -1.217655703910     3.964498419629
H      1.027301895299    -1.963543580851     4.494764366125
H      2.298336663111    -1.765793356660     3.236125081116
H      2.298909821651    -0.705714207377     4.717466574239
Pd     1.875502972205     1.118491750164    -0.192296563436
C     -0.958145825577    -0.947081648475     0.148746607926
O     -0.837860430725     0.061034342995    -0.742900449762
O     -0.008766088779    -1.680221517904     0.506347995585
C     -2.379005591325    -1.073378375927     0.730852478790
H     -2.262093290818    -1.325648281020     1.789515183068
C     -3.185148342346    -2.156734196470     0.048750258652
H     -4.178859253769    -2.236681968786     0.536106550178
H     -3.332232043933    -1.890832104290    -1.018061541490
H     -2.661933367498    -3.132287765373     0.124398103510
N     -3.112168639126     0.182407948135     0.625422258869
C     -3.113246851127     1.064562055764     1.669142163638
O     -2.514008597432     0.874060927842     2.751676709627
C     -3.878703286667     2.316633551119     1.487740237670
H     -4.642217583067     2.353443946967     2.281917420213
H     -3.171136022810     3.155471336628     1.600286596678
H     -4.357998460893     2.344091168889     0.493989984666
N      2.841675275237    -0.097070577159    -1.599384735524
C      3.546898466980     0.539372258324    -2.587467656756
C      4.445024031210    -0.165025040368    -3.361039157353
C      4.635224905428    -1.514200685242    -3.158133929919
C      3.905608843521    -2.130059741843    -2.176236514402
C      2.993262066452    -1.375266834741    -1.409673801183
H      3.407120112988     1.601831129333    -2.751279612716
H      4.999689288598     0.345779180946    -4.131843699558
H      5.340235288257    -2.076311383042    -3.765235292163
H      3.995129018230    -3.179878719234    -1.975642672798
O      2.333167217871    -2.099097153568    -0.520307789746
H      1.522408727790    -1.708287655469    -0.057670947256

