# STO-3G

title

0 1
C      2.115523834080     2.440929121027     0.626544910339
C      3.229530464101     1.832902104227    -0.025826900586
C      3.544758171001     2.143297696631    -1.353992472628
C      2.760549152873     3.074298201550    -2.075139965720
C      1.653963903867     3.680533633060    -1.461478954037
C      1.325554230381     3.366276370271    -0.122168323669
H     -3.163014350832     2.051836871504     0.719514762288
H      3.832382224718     1.113868213017     0.522956020985
H      4.391292278572     1.658153898746    -1.833693135215
H      3.020298712896     3.318485131998    -3.102849596808
H      1.055751438484     4.408117593642    -2.004792270771
H      0.521197188532     3.910351370148     0.365172922700
C      1.885193692334     2.249283817260     2.143285981027
H      2.013106720753     3.209028889492     2.660119803929
H      2.641141078083     1.554995078013     2.518346596101
C      0.492732918908     1.607789672553     2.341143421808
H      0.545826492166     0.669051641395     2.883561283551
C     -0.663164723348     2.409751079945     2.799618141308
O     -1.603384856322     1.830197502591     3.407791989440
O     -0.663543395163     3.803362036222     2.614880483019
C     -1.842420493721     4.493460578142     3.051436267458
H     -1.728170782269     5.580388105441     2.850066405854
H     -2.738999296837     4.130295167012     2.499505760777
H     -1.999080477052     4.357473317825     4.145672762243
Pd     0.386237712971     0.950308467508     0.382192702829
C      0.543057057394    -1.770705841823     2.061933314970
O      1.520622414163    -1.208124037643     1.382185669346
O      0.633677991931    -2.328777229198     3.184096524576
C     -0.906517831984    -1.706244827744     1.419180671612
H     -1.582834033509    -2.044074240272     2.216450242757
C     -1.040593020117    -2.641194646964     0.234137396353
H     -2.093181780363    -2.671968386641    -0.110532727097
H     -0.413301604914    -2.281613426415    -0.603552715069
H     -0.723939116592    -3.666803569863     0.516600414123
N     -1.223572899396    -0.345704452425     0.940576755011
C     -2.363829464795     0.226979303164     0.963114298830
O     -2.456800619408     1.471065865647     0.374425452672
C     -3.575076455060    -0.381198108660     1.555257279897
H     -3.759647618519    -1.352565152692     1.069450574567
H     -3.397651353948    -0.494305009035     2.639185473578
H     -4.441923826159     0.282439356067     1.391371450674
N      0.617280669543     0.265193799793    -1.635583356059
C     -0.017566375192     0.927311658917    -2.648882622481
C      0.255386922763     0.601276493798    -3.962911177602
C      1.164395738383    -0.390390778305    -4.263020756622
C      1.779181578979    -1.046554209635    -3.228803551751
C      1.473313715115    -0.684495240914    -1.898366632113
H     -0.729670448587     1.710845121443    -2.416544821492
H     -0.246013093357     1.132042994126    -4.754768119859
H      1.385257498121    -0.648667911087    -5.295110036329
H      2.493202526338    -1.828402756062    -3.391154030148
O      2.106397187596    -1.379184278827    -0.982988420151
H      1.829496307245    -1.267692547003     0.066551421394

