# STO-3G

title

0 1
C      1.996791414368     3.878297856826    -1.275519410848
C      1.827117571798     4.646460433878    -2.443863810855
C      2.283026618153     5.979565595731    -2.482150651729
C      2.908425228370     6.543494111021    -1.352139546563
C      3.078562681469     5.773971643357    -0.183543156300
C      2.622506045494     4.441647754929    -0.146225759890
H      1.645447692312     2.851207944338    -1.238618971815
H      1.343436573157     4.210827366245    -3.315519818430
H      2.151532746753     6.572805476118    -3.384138433099
H      3.260370534091     7.572193521796    -1.381991315539
H      3.562694503537     6.207515372944     0.688646835574
H      2.753358169833     3.841882333649     0.752287588342
C     -0.983422383804     2.613076521126    -0.132738065446
H     -1.206704317447     3.179509584546    -1.032477676436
H     -0.230510669343     3.023830208811     0.532189431234
C     -1.735403588057     1.512702243370     0.269736143918
H     -1.487919953126     1.059462933944     1.220255066860
C     -2.944336293519     1.033304915620    -0.423980954063
O     -3.555915104756     1.796740858548    -1.219287945986
O     -3.482031092455    -0.210432757071    -0.047282932757
C     -4.625066223466    -0.643108766268    -0.798381675365
H     -4.953957392820    -1.638386372405    -0.430821508773
H     -5.471640629939     0.070472732364    -0.677368386812
H     -4.373098009708    -0.735238462935    -1.880205382554
Pd     0.179830928279     0.788047530145    -0.810314127441
C     -0.521087666382    -0.452515124939    -3.286208837522
O     -0.959523227445     0.477081285110    -2.405012803786
O     -1.110991539995    -0.723749453070    -4.345432873081
C      0.774428742305    -1.211343784450    -2.851634021243
H      1.348505058456    -1.405627168651    -3.766946695958
C      0.425812892205    -2.532351036125    -2.197440917291
H      1.349629663014    -3.075950915398    -1.915154223705
H     -0.173123957803    -2.347494057409    -1.280865306421
H     -0.163361091448    -3.161826910970    -2.897349808973
N      1.502625477434    -0.408731790443    -1.851971405527
C      2.793640748027    -0.334215528647    -1.674947892748
O      3.356775890219     0.357576086358    -0.705599758704
C      3.730710988655    -1.012886486222    -2.588952516090
H      3.524796658302    -2.095672719456    -2.570328196640
H      3.595629153115    -0.590759058316    -3.599155990993
H      4.768272483910    -0.828625189160    -2.252097656492
N      0.239254341839     1.181022377256     2.600865302506
C      0.153938677682     1.302351332796     3.961483884009
C      1.300511643315     1.484975503100     4.713190128350
C      2.534728143848     1.546849635950     4.101805976157
C      2.591613673201     1.423663709458     2.737229956158
C      1.384859203586     1.236453725358     2.018449312560
H     -0.814301469067     1.255244314104     4.446073936554
H      1.222242472636     1.579787776713     5.783676349854
H      3.439009891684     1.691455127807     4.687011474270
H      3.520060133218     1.467729585922     2.205344002337
O      1.542821984553     1.141863392268     0.692367066157
H      2.661267070177     0.769643896296     0.003733220264

