# STO-3G

title

0 1
C     -0.841647511697     0.252596791143    -2.474954594830
C      0.046546172042     0.161471623893    -3.565911615351
C     -0.017485287054    -0.940464022845    -4.442691306341
C     -0.973282178784    -1.954753244736    -4.232042989537
C     -1.867159146832    -1.864331319986    -3.145334647612
C     -1.800971127144    -0.761091973367    -2.271563024997
H     -0.826827991737     1.103665871127    -1.799765450660
H      0.785539071759     0.942154138871    -3.734602238388
H      0.669884183186    -1.008195311804    -5.283086032861
H     -1.024213813307    -2.804258833371    -4.909812933085
H     -2.610525573424    -2.642609784804    -2.984912485888
H     -2.493522597602    -0.683784600468    -1.434590622749
C      1.106047174584     2.629758689194    -0.526128444853
H      0.088457925656     2.980758065870    -0.680421317618
H      1.673180957551     2.305069562870    -1.393176795780
C      1.736902801653     2.686944369996     0.720026516101
H      2.763075576437     2.365008746843     0.763974524384
C      1.162165245083     3.336607784046     1.928667555416
O      0.138987265404     4.052485972665     1.803887887665
O      1.718700923076     3.182034651699     3.215725963015
C      2.842499674783     2.305545732244     3.379986326170
H      3.100037708426     2.250573579404     4.460256530791
H      2.602984854284     1.273347465404     3.037344083761
H      3.737323936992     2.698748539414     2.847953805931
Pd     0.821325709753     0.623272386864     0.468763429741
C      2.978645573269    -1.197823638093     0.005618008863
O      2.671445795709     0.122028283152    -0.053435645362
O      4.131849867422    -1.631152407466    -0.152008228411
C      1.764931247538    -2.148365428798     0.257950574818
H      2.141018935677    -2.986582203235     0.858708352438
C      1.224552377230    -2.683053679434    -1.051482872262
H      0.356390349129    -3.347648051066    -0.873773883835
H      0.893605822991    -1.839280336951    -1.688534527319
H      2.012189462847    -3.252416001554    -1.587901482596
N      0.681361710763    -1.394371269991     0.918493775504
C     -0.203396357830    -1.849360441490     1.762711633407
O     -1.162133205281    -1.110332233546     2.282029989011
C     -0.167393612218    -3.246543494873     2.234552855459
H     -0.266827698560    -3.918627497660     1.366965602798
H      0.783557850310    -3.409609888090     2.768405038062
H     -1.010427536280    -3.419093560219     2.930004656660
N     -1.984779441259     2.476206645957    -0.324825027217
C     -3.050451613523     3.238440263572    -0.719727419013
C     -4.180724201864     3.313722801272     0.073554448327
C     -4.236224224863     2.639069744277     1.274623360036
C     -3.154265614089     1.884800485549     1.648501456269
C     -2.021092165262     1.848294758155     0.798817544686
H     -3.009402595170     3.772194890675    -1.661847759501
H     -5.013014434427     3.917902527072    -0.246081719807
H     -5.115081873404     2.705868285934     1.910029279368
H     -3.127788825818     1.356656036297     2.578978549256
O     -1.018285672508     1.081499372649     1.254443601910
H     -1.211832261798    -0.102062857782     1.910718182220

