# STO-3G

title

0 1
C     -3.102847462577    -1.467292793402    -0.873205656049
C     -2.468703575186    -2.321229475442    -1.799089633510
C     -2.741687083767    -3.703109908511    -1.792461324550
C     -3.655024524432    -4.236880076335    -0.860464908627
C     -4.292105859630    -3.386220539152     0.064318499629
C     -4.015374608813    -2.003820030703     0.057803777069
H     -2.870660698774    -0.406896415604    -0.911153326738
H     -1.755122173541    -1.902990697394    -2.503498211682
H     -2.246485135805    -4.359855667790    -2.504394596766
H     -3.868569958962    -5.303590905726    -0.855079145181
H     -4.999729674017    -3.794954894975     0.782684873875
H     -4.514878070927    -1.358240485484     0.778922432679
C     -3.113488275931     2.094630836489     0.052507776336
H     -3.959497893798     1.626332016854     0.558068131346
H     -3.042829637454     1.884004160319    -1.013293649227
C     -2.367998597682     3.113026529434     0.640922306009
H     -1.680365585539     3.668870253414     0.023896247002
C     -2.556050754819     3.639997686257     2.003545163636
O     -3.392341689569     3.092524216745     2.769767470960
O     -1.761938556004     4.714456981892     2.434631717668
C     -1.984721578293     5.163166369448     3.778813922041
H     -1.302523147397     6.012561522408     3.999905776750
H     -3.032699404899     5.516400163384     3.910194471814
H     -1.772449152956     4.349411864876     4.508715915427
Pd    -0.950298620462     1.205604106078     0.306947174351
C      1.386029844369    -0.255648218547     1.154985929363
O      0.970877039136     0.611630568889     0.218257975924
O      2.577668202988    -0.481659733209     1.436076959586
C      0.232397595872    -1.055103157491     1.825876463879
H      0.577409330738    -1.359028757842     2.821686201088
C     -0.081090287820    -2.290121279574     1.002658177260
H     -0.946682956443    -2.842333457846     1.418111427709
H     -0.326224176304    -1.987934410354    -0.036077603024
H      0.799876452409    -2.965303760276     0.979112144770
N     -1.005341762017    -0.227996674916     1.863971447516
C     -1.963999989645    -0.394530192951     2.712776175069
O     -3.152714414941     0.215710311418     2.609177147779
C     -1.848026071978    -1.262333870159     3.897934709506
H     -1.667985358919    -2.300201946436     3.575010729891
H     -1.021898793717    -0.884368308533     4.524254787289
H     -2.788613410274    -1.222360552101     4.479719159639
N     -1.818076212140     1.096846721344    -2.671517715754
C     -2.173580865422     0.765696416231    -3.951368204691
C     -1.588273867631     1.411382914490    -5.024591464850
C     -0.639851574265     2.391765932398    -4.818818233177
C     -0.301118149884     2.707799813163    -3.530173290312
C     -0.921986372043     2.013437400167    -2.464675282965
H     -2.919480389881    -0.002270128986    -4.119764904618
H     -1.875071923737     1.141631453044    -6.027119219466
H     -0.172501948475     2.900496677819    -5.657482938782
H      0.433547895379     3.449616320058    -3.290527267224
O     -0.523155014153     2.405085258851    -1.258671550737
H     -3.219554864425     0.768250626310     1.799393851223

