# STO-3G

title

0 1
C      0.204959364941     3.453212740898     1.917642588213
C     -0.082869488474     4.404817652800     0.917593360963
C      0.409073020089     5.720498850969     1.024539331777
C      1.192193754673     6.089159087180     2.136865969367
C      1.477998549775     5.142788496138     3.141158061790
C      0.983133410725     3.827776603152     3.031904486991
H     -0.183070770196     2.442948695540     1.817499435610
H     -0.691448386915     4.119092923709     0.060467822943
H      0.184468208167     6.450937011735     0.250545388643
H      1.573785558755     7.104187047886     2.221234082731
H      2.079184206156     5.427963456729     4.001598317537
H      1.200062123060     3.100709201109     3.812363383538
C      1.555054182528     0.870854532819    -0.686534780759
H      1.946256935945     0.351014811674    -1.554779694838
H      0.706599496435     1.523803376325    -0.848215490248
C      2.216048256522     0.864692344774     0.539224388185
H      1.848685131134     1.490857296714     1.339209969505
C      3.528412217809     0.235751157265     0.775959409635
O      4.255765852625    -0.082738915406    -0.203359409383
O      4.021089182273     0.200382764671     2.092505374651
C      5.274879455290    -0.474727394250     2.265144252192
H      5.557228000101    -0.460944203509     3.339343697656
H      5.197372455367    -1.537441459038     1.937983198882
H      6.080484582106     0.031347302422     1.686065781105
Pd     0.528957705925    -0.699559824859     0.583296026553
C      1.542316097497    -3.363883524176     0.734917564330
O      1.931979563558    -2.104587969768     0.431068347240
O      2.313372139125    -4.338159865485     0.757016779612
C      0.013312055439    -3.525017675241     1.037135414312
H     -0.081086565532    -4.319783916657     1.788179426128
C     -0.748012223039    -3.926103366546    -0.208265411968
H     -1.821050360317    -4.068362168720     0.031734429335
H     -0.657815567658    -3.126284042950    -0.973761297082
H     -0.339390755503    -4.873694711067    -0.618158013139
N     -0.526259553232    -2.225118447334     1.471735122262
C     -1.434380223706    -1.986077966063     2.371801198579
O     -1.872655932069    -0.771835873959     2.666526063468
C     -2.030865299706    -3.076124890814     3.163399155809
H     -2.510680683371    -3.790543919953     2.473753094752
H     -1.229912341347    -3.555753008270     3.751050930089
H     -2.789978792468    -2.657469973410     3.850636137389
N     -1.614575679987     0.453021249550    -1.312896574778
C     -2.471821158970     0.780996344173    -2.329072873722
C     -3.511929150139     1.664407705929    -2.098391402618
C     -3.695563780122     2.219663767879    -0.848563791773
C     -2.823521187507     1.872290635032     0.150820448850
C     -1.778977396398     0.965804825107    -0.144299953359
H     -2.331527590970     0.348184524468    -3.312696881924
H     -4.179991037978     1.918118059886    -2.905002593796
H     -4.508403333429     2.916610536238    -0.662162942153
H     -2.899584601302     2.274568041088     1.141229320606
O     -0.961829969580     0.690967735032     0.891255429968
H     -1.542025951752    -0.024650596084     2.002306058238

