# STO-3G

title

0 1
C      0.199018697993     3.406551149284     1.878887093900
C      0.409799339762     4.640120944988     1.228811387030
C      1.111697163171     5.675155499923     1.878305773247
C      1.604939301397     5.479302023714     3.183880417498
C      1.392453390899     4.249733314334     3.839109312258
C      0.689598944232     3.216669264669     3.187653765948
H     -0.340241750850     2.607258598917     1.376566491048
H      0.027647868054     4.792779927392     0.221022992159
H      1.272632520413     6.624839156065     1.372868438162
H      2.147937325061     6.276841789114     3.686063892947
H      1.770303657004     4.098063456069     4.847699107640
H      0.521746440561     2.269500327384     3.696956270366
C      1.427276913392     0.870002206318    -1.062556990306
H      1.793255884785     0.256735523575    -1.879175487427
H      0.558541394533     1.484765157350    -1.264709465699
C      2.135828241578     1.022536276171     0.126981598931
H      1.788819454594     1.730031111681     0.866528456327
C      3.465892958202     0.439510767743     0.383279726268
O      4.154373687475     0.005172014935    -0.579770899017
O      4.013214424173     0.567897778026     1.671947597360
C      5.275261581705    -0.082552434851     1.875102918101
H      5.601840018054     0.065552464862     2.926369969848
H      5.187231655037    -1.177803607015     1.687707555992
H      6.054286885362     0.345364639983     1.204058195532
Pd     0.467735284785    -0.542154213689     0.427684294542
C      1.543950457403    -3.124943592075     1.001876736592
O      1.902357543617    -1.924256088988     0.493069538153
O      2.336687781289    -4.067160652087     1.169821223052
C      0.022295870296    -3.265245954073     1.348452331371
H     -0.047110889259    -3.928546334530     2.220176329762
C     -0.744571495474    -3.877759596861     0.196081005581
H     -1.811286848317    -4.000298659763     0.472553703866
H     -0.681244395053    -3.210716767387    -0.689981151321
H     -0.320112189398    -4.870957719980    -0.061349307951
N     -0.539263323562    -1.922590055331     1.572504667839
C     -1.437699935975    -1.553886672129     2.437059764262
O     -1.898275987333    -0.315180995864     2.532099171885
C     -1.996160660477    -2.506421216163     3.412196510521
H     -2.471250916926    -3.335694698664     2.861790543087
H     -1.174772777501    -2.865180028570     4.055289813065
H     -2.752756889587    -1.992858914032     4.034803139283
N     -1.712798946079     0.132942731954    -1.606461430106
C     -2.592158656031     0.201498453292    -2.653819151066
C     -3.688528635852     1.043151291960    -2.582313841408
C     -3.904063381479     1.819427051711    -1.461887022477
C     -3.007394577570     1.731249798538    -0.428105270453
C     -1.907148770222     0.852670645917    -0.557765593529
H     -2.426495520002    -0.405001450143    -3.536558540262
H     -4.374411394070     1.091039775358    -3.412082629029
H     -4.760977306780     2.485181710651    -1.401676318003
H     -3.107315462027     2.311657372449     0.466969590877
O     -1.070923944560     0.834788961904     0.498949214332
H     -1.606216305464     0.309783531390     1.737582692954

