# STO-3G

title

0 1
C      3.202268610111    -1.442952283964     0.503163016783
C      3.550393878533    -1.877238030445    -0.793404216945
C      4.837609114409    -2.393810182032    -1.043017634777
C      5.785392122109    -2.474583800140    -0.003645490925
C      5.444586245942    -2.031820099197     1.289629491631
C      4.155758123805    -1.519640872177     1.540074099796
H      2.206657531479    -1.058144280809     0.712175054911
H      2.837704652229    -1.798763874512    -1.608338622499
H      5.098492573103    -2.725511457722    -2.045663975153
H      6.779211041308    -2.871736004567    -0.200377088455
H      6.176608258498    -2.081909416181     2.093201583640
H      3.906977341439    -1.167047632240     2.537808759008
C      0.862357373902     2.543115214657    -0.131166602140
H      0.170540532864     3.227212204622     0.353916577697
H      0.907087378398     2.558632786999    -1.214603390341
C      1.809328027935     1.824164464507     0.599516979048
H      2.542247373319     1.227484206132     0.078769839341
C      2.062301711164     2.024672306905     2.039019298013
O      1.364425752900     2.851929498977     2.687175598078
O      3.181282624188     1.406340853560     2.624489928581
C      3.402004431330     1.696824273444     4.011609815812
H      4.298380423332     1.144145847094     4.365013260843
H      3.582575384750     2.785293237680     4.162048502510
H      2.528609713160     1.380517752491     4.626002009402
Pd    -0.072335760107     0.531861859024     0.007358112349
C      0.377624541729    -0.875604066756    -2.438534086255
O      0.931408914011     0.077034696123    -1.654218245852
O      1.003020010260    -1.473457093457    -3.332622025059
C     -1.138347582733    -1.131321388663    -2.183138272954
H     -1.339825883143    -2.180012771280    -2.436907989846
C     -1.968025472675    -0.229364312250    -3.078589548035
H     -3.049448003895    -0.418081264172    -2.936625952344
H     -1.759623393920     0.832520738106    -2.830626575423
H     -1.712766787079    -0.410742552062    -4.144199744152
N     -1.470122470909    -0.792729743924    -0.782508100573
C     -2.489686413706    -1.220121618637    -0.093405394546
O     -2.839585170580    -0.718531003908     1.075508924383
C     -3.319144326459    -2.347603910643    -0.558844197791
H     -3.803360035210    -2.077756664285    -1.509624432019
H     -2.665650265232    -3.229045406836    -0.674152578382
H     -4.096404677289    -2.566406206793     0.197562261597
N      0.504362165302    -0.474170715610     2.743134490730
C      1.009540005670    -1.091058942203     3.856240604484
C      0.427082640432    -0.873038499336     5.092734554243
C     -0.669989121013    -0.043621788158     5.213169620410
C     -1.167248048470     0.545242705146     4.079605889608
C     -0.524224942518     0.293716566826     2.846950702768
H      1.866792589564    -1.746730027848     3.766988220353
H      0.834349889712    -1.358992336944     5.963578277554
H     -1.130365543163     0.134744740342     6.181134740716
H     -2.007842425572     1.208293945428     4.096099298555
O     -1.079944267471     0.891451050685     1.770132208313
H     -2.214548935084     0.053845093720     1.425042524765

