# STO-3G

title

0 1
C      2.344208144955    -1.348354395369     1.093031413345
C      3.158827314331    -1.194384416411    -0.047519935841
C      3.661049026520    -2.327244676110    -0.718602680748
C      3.351930815072    -3.620043039020    -0.248800434241
C      2.540891391169    -3.777356607277     0.893883046332
C      2.039683586869    -2.642457833087     1.562658063636
H      1.947584617762    -0.483020482584     1.618662725386
H      3.392854290306    -0.199558340041    -0.419929793119
H      4.282713400876    -2.201451168381    -1.602073107772
H      3.741375107829    -4.494530888065    -0.765742788129
H      2.302528647152    -4.773627993215     1.260424389422
H      1.403515685414    -2.762768513485     2.437116897471
C      0.049997629252     2.894024300488     0.888572056983
H     -0.377280551193     2.916708892276     1.886212826480
H     -0.573779051226     3.251811315246     0.073939373886
C      1.393611980588     2.611933706899     0.679638773011
H      1.778355218316     2.609647010839    -0.328940777402
C      2.408611132528     2.475853221492     1.736301557817
O      2.270511562936     3.106007415513     2.820795402924
O      3.646568335029     1.911195726416     1.382984851858
C      4.604881349264     1.787776811919     2.441659363399
H      5.532036168687     1.322410590522     2.043429472726
H      4.867435071491     2.786950188178     2.857616995530
H      4.211576927023     1.135566345951     3.253013853844
Pd    -0.035750696919     0.753595546437     0.138853786899
C      0.684491669483     0.272852759490    -2.601908805873
O      0.823202194948     1.183966298371    -1.613052259520
O      1.306680928541     0.333243991660    -3.676556396436
C     -0.370275773505    -0.838597350626    -2.324617419832
H      0.012526631133    -1.757457140377    -2.787352694520
C     -1.695864481593    -0.475196224195    -2.965150400122
H     -2.439135348456    -1.280542355464    -2.802745321077
H     -2.082358649600     0.460891436490    -2.510836273005
H     -1.564262674803    -0.324143817702    -4.057528459242
N     -0.606764513512    -0.968675711939    -0.872373999636
C     -1.010678652101    -2.038162833984    -0.244732193022
O     -1.373139047586    -2.043554492001     1.022031541037
C     -1.035414940409    -3.355763362106    -0.905822521368
H     -1.719599796079    -3.317536073208    -1.767875623917
H     -0.002382862279    -3.596646383991    -1.213293038776
H     -1.387278912402    -4.119102365641    -0.187063904703
N      0.707891788996     0.684270942179     3.349753100796
C      1.148178143044     0.784779992506     4.643043827191
C      0.298730588479     0.472175404314     5.689871376729
C     -0.997905312740     0.073256468077     5.443102856376
C     -1.416973843540    -0.004212766096     4.139953402132
C     -0.505044941113     0.330486553474     3.110820659961
H      2.166094693391     1.097161515347     4.843081241434
H      0.656885659339     0.551896331005     6.702692256193
H     -1.671260083003    -0.168483066616     6.261010008638
H     -2.413666333725    -0.294005969067     3.877281330710
O     -1.011003814404     0.227047804289     1.870491652064
H     -1.317117969825    -1.091136508569     1.485230805602

