# STO-3G

title

0 1
C      1.678120323680    -1.185879285963    -0.764513941164
C      2.947731007303    -0.753363743987    -0.329462084085
C      3.905535024196    -0.311620146654    -1.263268797045
C      3.595229444351    -0.301891998483    -2.638632407491
C      2.329096196481    -0.739089704019    -3.076833626153
C      1.373363791472    -1.182469145489    -2.140442679360
H      0.952610855664    -1.537756393034    -0.037228584343
H      3.187001705086    -0.763486084385     0.732754162467
H      4.885060719495     0.017705786037    -0.923098939982
H      4.334214400141     0.037898210287    -3.360951309028
H      2.090036456437    -0.735725980839    -4.137830081999
H      0.396942081895    -1.520085271652    -2.481471607348
C     -2.258811151082    -0.593590613815     1.944286608311
H     -3.026765141334     0.153268180265     2.122081960734
H     -1.826925103254    -1.088174068149     2.809299918547
C     -1.961785768538    -1.064009380127     0.666568141679
H     -1.251831187397    -1.875515743836     0.586317081001
C     -2.680755496371    -0.663068066802    -0.556065994558
O     -3.828214643080    -0.148485640119    -0.467777225381
O     -2.153132663219    -1.057156672967    -1.798677958354
C     -2.858557418636    -0.574853569505    -2.950655422319
H     -2.346558193456    -0.925782050501    -3.871763237153
H     -3.903902072988    -0.959055025390    -2.964647032325
H     -2.875710415837     0.539562111398    -2.963050547141
Pd    -0.431836177023     0.557910906986     1.312391690213
C     -0.848744672344     2.920051259945    -0.233189623261
O     -1.482483388163     1.807067663850     0.200502979960
O     -1.410928578151     3.805109420994    -0.900216864315
C      0.668771325864     3.012505974014     0.120905630169
H      0.836049584413     4.062790752905     0.392213738360
C      1.517013552090     2.657135785774    -1.083680194108
H      2.595250845979     2.728265195646    -0.838825147921
H      1.298105939780     1.615476358699    -1.395739856085
H      1.292026235544     3.342387406618    -1.927606828183
N      1.005214749858     2.066258091027     1.204140019673
C      1.997632210582     2.120770470144     2.050524884081
O      2.223996705607     1.199819413933     2.967618533228
C      2.988462184428     3.216155989135     2.075204582625
H      3.988868175146     2.758689761291     1.980834249965
H      2.848314408965     3.939201189597     1.262440971589
H      2.904411287710     3.725560817476     3.051579183755
N      0.246762851320    -2.786618926497     1.918614281154
C      0.464304995539    -4.129056355782     2.071474411789
C      1.332184091326    -4.582075213620     3.048046764495
C      1.982643770765    -3.690033546759     3.873875068192
C      1.746669485411    -2.350468331489     3.699290206920
C      0.848958149983    -1.942502763015     2.682508657154
H     -0.045109652658    -4.833665500665     1.424543135291
H      1.496897494276    -5.641042181620     3.159903188111
H      2.664029674918    -4.040532097528     4.644542311221
H      2.216694354325    -1.610027187822     4.313752206606
O      0.686135420654    -0.618638547464     2.587228473653
H      1.588791006846     0.334780153022     2.918609915056

