# STO-3G

title

0 1
C      1.089739830745     4.280739206967    -1.126356900265
C      0.609647421061     5.074344217984    -2.186787817046
C      0.669700999388     6.479607681191    -2.099762774959
C      1.211629519111     7.088490285093    -0.949834629852
C      1.687177810706     6.292538570341     0.112333862805
C      1.626976053206     4.886846318304     0.028033433524
H      1.056342695078     3.195923152363    -1.190817115845
H      0.187318301529     4.595930034780    -3.068926257699
H      0.298497716557     7.091675538985    -2.918726332373
H      1.260964066871     8.173214378148    -0.882513142093
H      2.102562358061     6.763977098534     1.000124115301
H      1.979313176583     4.260351256301     0.843941174211
C     -0.873266102901     2.015864195277     0.874226704564
H     -0.315525208271     2.872043077877     0.513227555550
H     -0.637458689722     1.697170749377     1.884580879443
C     -1.905604862071     1.432586311318     0.166821710792
H     -2.477394778449     0.629497092716     0.603713593078
C     -2.365397057608     1.863749198092    -1.164261263455
O     -1.575723469184     2.494666408901    -1.917734093192
O     -3.638353140773     1.464427356548    -1.606236273902
C     -3.959754341215     1.789347436563    -2.965442441138
H     -4.982940903525     1.423905100948    -3.197997557200
H     -3.936011142504     2.890959252664    -3.126212996390
H     -3.248769132610     1.294878526791    -3.665848617166
Pd     0.188075230475     0.353148502172    -0.376719973804
C     -0.803478911466    -1.924731212449    -1.810050316418
O     -1.240786443952    -0.824480512001    -1.153448401789
O     -1.561217432999    -2.712842325586    -2.399682546433
C      0.738715786202    -2.166409013022    -1.739487146051
H      1.033594488258    -2.599966833324    -2.703560425633
C      1.083168454097    -3.142554410659    -0.634174246240
H      2.178312489932    -3.313121759422    -0.603266379605
H      0.754995256556    -2.731641610199     0.342926423266
H      0.572383905674    -4.112845068290    -0.810691032822
N      1.420831447113    -0.898749343938    -1.430443153538
C      2.578396809533    -0.480006952480    -1.871071983268
O      3.142679132118     0.645860629453    -1.491545581510
C      3.341850169182    -1.263712405944    -2.859383486931
H      3.552623693641    -2.260863316407    -2.439335433247
H      2.744933642156    -1.328560887387    -3.784973116531
H      4.295084202437    -0.745763700283    -3.077988429646
N      2.103625296855     2.297095440868     2.462134560182
C      2.490445847117     2.090128940129     3.759219055348
C      2.871847396439     0.825526087941     4.173972757768
C      2.878138210577    -0.229924136804     3.286300477699
C      2.495789390790     0.008366166979     1.990644327343
C      2.122273100972     1.326295526007     1.625404291297
H      2.483179935193     2.915835999137     4.461131174733
H      3.170120244302     0.672869836970     5.198197122333
H      3.182984767076    -1.223165902457     3.605054194674
H      2.497229588923    -0.760478250847     1.246093995671
O      1.769129859868     1.495452782755     0.325296854650
H      2.628216866141     1.138752259344    -0.678886402997

