# STO-3G

title

0 1
C      0.327534548753    -1.218372120416    -3.227328747797
C     -0.922405725677    -0.951949702415    -3.823692651496
C     -1.631639275464    -1.978272441433    -4.478583490193
C     -1.088332254527    -3.277685295158    -4.542834114737
C      0.162681693649    -3.546704540760    -3.951934943740
C      0.868704268855    -2.518336714380    -3.295784683286
H      0.857805795990    -0.404135417494    -2.741673667837
H     -1.336563974457     0.053713252613    -3.772585776799
H     -2.595899139877    -1.767943081655    -4.936865018629
H     -1.633134424085    -4.071640516970    -5.049278283603
H      0.582048634539    -4.549279976856    -3.999055030840
H      1.829960020959    -2.736279602907    -2.834988213277
C      2.705766398906    -0.119467822075    -0.791855352118
H      2.627793232117     0.582023020397    -1.617916218961
H      2.838173380259    -1.172976901726    -1.015729859119
C      2.750870659500     0.307034618735     0.536323202940
H      2.876877259181    -0.423790279725     1.321831277645
C      2.827773012142     1.715271030714     0.968892801043
O      2.993288272369     2.633485562670     0.122151938905
O      2.775345009771     1.994533713983     2.345723882754
C      2.849733559241     3.381233640766     2.705484169584
H      2.793822707364     3.478776724759     3.810949024568
H      3.812017464654     3.826939457754     2.364986710211
H      2.001631123699     3.950399623624     2.261136994948
Pd     0.602561249892    -0.240941644149     0.019088636200
C      0.014107948790    -2.843030870357     1.050659613364
O      1.055236650539    -2.054627240931     0.689815469477
O      0.158635952603    -3.959556081127     1.576446281528
C     -1.403764032767    -2.270130179118     0.725123889127
H     -2.054708444751    -2.563130946713     1.559465872418
C     -1.943569347330    -2.875129232374    -0.554072922096
H     -2.958120488744    -2.488148334233    -0.771246915345
H     -1.279762457144    -2.609031334804    -1.399866883420
H     -1.990289589697    -3.980853140901    -0.466238117828
N     -1.323271024003    -0.808450255598     0.532869764506
C     -2.242021465672     0.079906757130     0.793956244833
O     -2.096191386374     1.369678355914     0.563149774636
C     -3.525507749393    -0.300577980430     1.413772122455
H     -4.040058735922    -1.020007716178     0.756904929721
H     -3.316950810972    -0.733729600531     2.406284822291
H     -4.154961691276     0.601131060319     1.534267561133
N      1.114905200834     1.910441178025    -2.556603122244
C      1.356215627531     2.670821616912    -3.668283688582
C      0.754596168833     3.908739263474    -3.804937562149
C     -0.076486758554     4.393572922994    -2.817351747758
C     -0.297115730327     3.614337948786    -1.711135415640
C      0.347642354829     2.355628810536    -1.623492505392
H      2.009737236186     2.293345965324    -4.445882252827
H      0.950698390385     4.498538357519    -4.684560321421
H     -0.543422238842     5.369991667093    -2.913169733247
H     -0.918166774775     3.940670819768    -0.903066428032
O      0.064990858368     1.670827079682    -0.504331323134
H     -1.175029006445     1.641481972636     0.084365719362

