# STO-3G

title

0 1
C      2.254643248481    -1.470909687802     1.517030900822
C      3.143119010673    -1.340000542123     0.429819127447
C      3.513331496983    -2.473847516748    -0.320508779967
C      3.000117627279    -3.742833619994     0.018183530337
C      2.116688524913    -3.876373269416     1.109038069718
C      1.746189395558    -2.740871733527     1.856831417798
H      1.953459396622    -0.604723390921     2.100299006652
H      3.536212885345    -0.363457402567     0.159783195092
H      4.192852088871    -2.366282904094    -1.162476079108
H      3.289515745857    -4.618782240753    -0.558465228632
H      1.720926922161    -4.854147724203     1.374793273255
H      1.055697962058    -2.840085731325     2.691947885627
C      0.063731672955     2.775793616907     1.543401580170
H     -0.180599369873     3.511817604104     0.783085857413
H     -0.711732943739     2.524153275593     2.260787862549
C      1.363010055990     2.314447404142     1.741125268874
H      1.539492342481     1.655625975752     2.580689651469
C      2.539476224984     2.798947300473     0.996744584771
O      2.466302207181     3.873890890178     0.340945484402
O      3.770246342975     2.149909767575     1.197631324524
C      4.844178411961     2.587826211654     0.354091035245
H      5.756134530267     1.995329110601     0.580524474042
H      4.586793595388     2.435477220198    -0.719832305795
H      5.073657007570     3.663272390205     0.530077346590
Pd     0.110737459880     0.777139180878     0.501790130979
C      1.289431297370     0.532657430705    -2.091760882391
O      1.253729060996     1.351129572768    -1.015782688672
O      2.144820295218     0.626542711219    -2.989302447733
C      0.134937652431    -0.510575484580    -2.153515164594
H      0.536671353840    -1.399396822682    -2.656108727352
C     -1.025075474512     0.039117369656    -2.960864747156
H     -1.839432172088    -0.708398146653    -3.031254932617
H     -1.421285458769     0.950335642221    -2.465643609010
H     -0.687261912487     0.299397487348    -3.986258317923
N     -0.366509383238    -0.782964624390    -0.790886269274
C     -0.942647236501    -1.878215392721    -0.378811663551
O     -1.506404957663    -2.002429485305     0.805710209470
C     -0.959409700449    -3.098098562102    -1.207066993084
H     -1.489888387110    -2.890564576623    -2.149390499581
H      0.088228510593    -3.397998904688    -1.384946855633
H     -1.479985330847    -3.905346103560    -0.659022532107
N      0.368538080437     0.378729578887     3.861862714666
C      0.608896794004     0.243789214431     5.202654067832
C     -0.335298647855    -0.352774302992     6.017740305752
C     -1.524161678527    -0.810889645258     5.491159061893
C     -1.739882954332    -0.660510647258     4.145542546740
C     -0.738415168741    -0.043997101909     3.356288783669
H      1.542199002438     0.602658148215     5.620661871832
H     -0.135799970706    -0.455586053514     7.071668314729
H     -2.271539550187    -1.277799747644     6.127150048080
H     -2.645388375453    -0.988304819935     3.676598415641
O     -1.051188885949     0.048392648964     2.053727848329
H     -1.418824881327    -1.139224401168     1.420817241333

