# STO-3G

title

0 1
C      1.691114495884    -1.228092863912    -0.781563523401
C      2.963343293033    -0.780072699362    -0.370517932106
C      3.904810557043    -0.344947791712    -1.323849476623
C      3.574966630832    -0.356196665087    -2.694603951344
C      2.306082754471    -0.808468627286    -3.108803970119
C      1.367179998459    -1.246298626985    -2.153047988095
H      0.977771495450    -1.573473584768    -0.039481938727
H      3.216942532115    -0.772819727314     0.688317000918
H      4.886476969727    -0.003700936604    -1.002130016877
H      4.301034522712    -0.020761633843    -3.431892235528
H      2.052063178141    -0.821234540733    -4.166247077638
H      0.388648853364    -1.595862860715    -2.475722480690
C     -2.224471564408    -0.603580698156     1.938804702960
H     -2.986538298719     0.144382805971     2.136233079337
H     -1.788401332246    -1.117686761847     2.790192960764
C     -1.938741693596    -1.050704240568     0.650642129324
H     -1.234402438359    -1.864441512624     0.550299274451
C     -2.662341327105    -0.622061264129    -0.559706775744
O     -3.806353683162    -0.103097097731    -0.455177957092
O     -2.142436663246    -0.992798524444    -1.812698887795
C     -2.854684048849    -0.489194827118    -2.951280599519
H     -2.348217289235    -0.823006550153    -3.881785436394
H     -3.900128485298    -0.873117764265    -2.966071051019
H     -2.871935071123     0.625220591070    -2.942994618802
Pd    -0.398919397050     0.553210222795     1.308879282340
C     -0.819349023948     2.972239096721    -0.153981976995
O     -1.457077036590     1.844999856957     0.244322288311
O     -1.388845528001     3.901817429440    -0.749704507562
C      0.714178070609     2.997977239900     0.135040634197
H      0.974746864658     4.037697739402     0.372226269502
C      1.489132122877     2.560582733912    -1.091090480209
H      2.577912244347     2.564224606290    -0.887598233819
H      1.190095576240     1.530110217756    -1.371859876415
H      1.277973156474     3.242104712677    -1.941485978090
N      1.029648815752     2.050477592771     1.221461130467
C      1.991257924203     2.142698932814     2.097628384218
O      2.250433103177     1.214956006538     2.998076395433
C      2.867003787064     3.328402559481     2.155436545975
H      3.610624704376     3.189808554305     2.961804083691
H      3.388420519631     3.431004135102     1.190379790485
H      2.248073352192     4.214873853943     2.378250240789
N      0.252329447548    -2.793021821415     1.922526199602
C      0.446683531889    -4.137699040881     2.086544588619
C      1.326350555007    -4.596850646475     3.049612253636
C      2.012253698796    -3.708679305288     3.850586615303
C      1.799085046709    -2.366698730703     3.665444145234
C      0.887819347749    -1.952536040053     2.663269058184
H     -0.090460654803    -4.839334011368     1.459109719868
H      1.472698312486    -5.657555482485     3.170257251358
H      2.703475892289    -4.064017159032     4.610203286416
H      2.297840310896    -1.629171068612     4.260317678845
O      0.749165502721    -0.627434392080     2.553375656296
H      1.644000182229     0.330952550294     2.915348682646

