# STO-3G

title

0 1
C     -2.567445009162    -1.291124456563     0.234370079756
C     -2.057752262821    -2.433229455760     0.882435842381
C     -2.739246074691    -3.662746435881     0.783235714159
C     -3.929145441573    -3.750471622813     0.033580860324
C     -4.437864438156    -2.607969545784    -0.616661057284
C     -3.757096052980    -1.379322429133    -0.514477034149
H     -2.043990844078    -0.342554330359     0.309836735473
H     -1.139608987644    -2.364871764349     1.461835254707
H     -2.345426603088    -4.543089237740     1.285506356880
H     -4.454441717614    -4.699653551656    -0.044361772636
H     -5.354501927229    -2.674750393844    -1.198308073781
H     -4.146792703170    -0.496175205750    -1.017086365371
C     -1.287845338957     2.638255802135     2.582238352279
H     -0.446590469900     3.100087840000     3.090723774119
H     -1.968553353253     3.263864508377     2.014990225927
C     -1.643687297959     1.310057906465     2.805000410878
H     -2.548582496697     0.948198580618     2.339192959804
C     -0.993564676391     0.426746712538     3.790679927176
O     -0.294419476253     0.926507794902     4.713599816975
O     -1.333552371495    -0.937121851145     3.792015114776
C     -0.625252088764    -1.752410578209     4.735399037707
H     -0.959747162648    -2.806897279412     4.634974389371
H      0.471882163555    -1.712803719628     4.543475429865
H     -0.829646166767    -1.419452520692     5.778293405766
Pd    -0.380960175896     1.511246829530     0.854735567582
C      2.219816885337     0.406539607727     1.302068106642
O      1.121178763553     0.844693740152     1.962352741502
O      3.153366833500    -0.194970371901     1.858875678352
C      2.249288370394     0.757197592942    -0.216411574261
H      2.789140187633    -0.055576561950    -0.719106638432
C      2.989692754868     2.059637172424    -0.446109108911
H      3.032745017816     2.294431534678    -1.528097626728
H      2.461080695433     2.884373102446     0.076104797044
H      4.025688318488     1.984399582862    -0.053089073186
N      0.869194818201     0.942689910160    -0.706289457962
C      0.429137667223     0.714447979314    -1.915183284985
O     -0.786906614180     1.018295831050    -2.311554886021
C      1.276386467486     0.063790869473    -2.932568482030
H      0.701141099094    -0.033895092482    -3.871915200992
H      2.165353309769     0.689440373183    -3.110587367988
H      1.552592140148    -0.941888810335    -2.569874125854
N     -3.801451008457     2.231560394192     0.854542619940
C     -5.154667692655     2.417283841898     0.936761417220
C     -5.890830269927     2.651533849093    -0.210263974386
C     -5.270282302520     2.706100179571    -1.440025461333
C     -3.913218703405     2.515941556701    -1.493006573109
C     -3.210131958270     2.272509763452    -0.286216740163
H     -5.645436376815     2.378083333673     1.902220608565
H     -6.956069755779     2.795314342032    -0.135126760204
H     -5.842812221246     2.894856585710    -2.344271265320
H     -3.376072902611     2.552604341018    -2.418827085312
O     -1.889759154886     2.086261988153    -0.442624801067
H     -1.375775787579     1.525353633281    -1.558877060253

