# STO-3G

title

0 1
C      2.679565638013    -1.795720312379     0.790522359060
C      3.314141843026    -1.464482293119    -0.424199001083
C      4.440829348656    -2.196640698490    -0.848460297723
C      4.934525889006    -3.254807470845    -0.059445598714
C      4.300944722033    -3.581988116662     1.156275964726
C      3.172603363485    -2.852305090273     1.580217972959
H      1.813909197507    -1.229808010380     1.128035451596
H      2.948425167986    -0.633306876618    -1.021992635486
H      4.929461884499    -1.939620684455    -1.785488555857
H      5.804438010347    -3.819028911208    -0.388489661231
H      4.681139660303    -4.398079407885     1.766780801779
H      2.680270906885    -3.103053178502     2.517301905648
C      0.790491260770     2.666353933532     1.292864521341
H      1.051198361331     3.236600957068     0.406758659780
H     -0.152373805292     2.839762274066     1.806481760949
C      1.701644497311     1.794112523497     1.883968821031
H      1.418413350610     1.294791416005     2.800707770540
C      3.117330754739     1.646179786147     1.501384060935
O      3.609691113826     2.369983239935     0.596308483439
O      3.919554934213     0.775469288750     2.258077755859
C      5.278009888843     0.634704101220     1.819648674196
H      5.799496462266    -0.100013505469     2.469492181863
H      5.319449981641     0.256055632679     0.773385838625
H      5.817013230151     1.606862299585     1.882162591117
Pd     0.251677824200     0.636866854201     0.485811866753
C      0.671732474798     0.627598333308    -2.341541612133
O      1.114120910226     1.219362700732    -1.206452219125
O      1.150087975691     0.856565229244    -3.465417253053
C     -0.520588044964    -0.364233686952    -2.147511673403
H     -0.368613819248    -1.179894677336    -2.866262975550
C     -1.840971726112     0.315329212742    -2.444808088681
H     -2.675397224813    -0.406034530904    -2.333955496923
H     -1.996993913097     1.153200343068    -1.733732304622
H     -1.841893825146     0.711332637417    -3.482348282295
N     -0.566181644143    -0.811037809907    -0.743342705980
C     -0.929440600193    -1.977863120203    -0.288180919485
O     -0.998966210751    -2.267841713937     0.995853265224
C     -1.254366086571    -3.087775762128    -1.201886461220
H     -2.093321209371    -2.783238379476    -1.848779951709
H     -0.350800798618    -3.323853292871    -1.789899631404
H     -1.545721587617    -3.975657679334    -0.609927306617
N     -1.300179703879     1.677005452934     3.328324378893
C     -1.966485275085     2.210231085571     4.398505497399
C     -2.555384296272     1.377290956370     5.332279335411
C     -2.473225082139     0.007604326994     5.197146182635
C     -1.798897740223    -0.499909060153     4.116435936640
C     -1.218871308375     0.400657317329     3.189226873793
H     -2.030728012865     3.286257806170     4.510439141201
H     -3.076613344934     1.807053223436     6.171720121005
H     -2.928857649621    -0.652435225937     5.930520170475
H     -1.691136745234    -1.554168511989     3.962657783371
O     -0.568937211986    -0.191540145859     2.178071586126
H     -0.832584381578    -1.430673315272     1.644255605735

