# STO-3G

title

0 1
C      2.896973769316    -1.701898485349     0.095632750914
C      3.446519247929    -1.328724963588    -1.147601235851
C      4.362419280211    -2.183742880983    -1.792728582389
C      4.726289952677    -3.407881703050    -1.196469087613
C      4.174348708861    -3.779292771103     0.046339898215
C      3.258925260602    -2.925089610676     0.692642514248
H      2.192306524027    -1.043854411920     0.598083621417
H      3.163891900243    -0.384583056072    -1.607092929000
H      4.787037504758    -1.896881106583    -2.751850388094
H      5.433644611571    -4.066411098052    -1.695682734660
H      4.454237829467    -4.724627151527     0.505692639645
H      2.826457403179    -3.207602386782     1.649485778467
C      1.229894859012     2.774266745140     1.161097623265
H      0.571214945384     2.991828044220     1.994948309982
H      1.088401519959     3.326978584089     0.238390417369
C      2.300646360063     1.888066539366     1.273397296199
H      2.959729513637     1.735970484782     0.430551441059
C      2.744529954441     1.265529343051     2.535065192969
O      2.223273387821     1.605548887820     3.631064340154
O      3.800505905222     0.340713714361     2.485636542186
C      4.147889802915    -0.283074499045     3.728830852737
H      4.980650614602    -0.999135714495     3.558817216992
H      4.485037173020     0.475424251395     4.471267779093
H      3.281381013588    -0.847352341004     4.142170171107
Pd     0.487939663235     0.786641033627     0.408092316808
C      0.433786972092     0.777119751020    -2.450043489096
O      1.047844292057     1.388918244653    -1.409431030515
O      0.711977795973     1.006400996163    -3.639398665083
C     -0.692227556561    -0.237056054342    -2.055106463456
H     -0.643800246774    -1.055090255666    -2.785391906606
C     -2.057063237141     0.413796274444    -2.132749860863
H     -2.845959506474    -0.326670204810    -1.890708678374
H     -2.114790537530     1.246588406748    -1.400814074005
H     -2.235093001987     0.810105693343    -3.154688217450
N     -0.498839328278    -0.674837888708    -0.661088856595
C     -0.730730715056    -1.849514010861    -0.148125609133
O     -0.554913953177    -2.135463287289     1.128910181001
C     -1.171281562199    -2.977138077022    -0.987743843178
H     -2.119240653833    -2.704595082584    -1.480065603875
H     -0.375312188591    -3.188724605782    -1.722400373607
H     -1.325911496316    -3.868680784400    -0.351492798297
N     -1.225431872636     1.793298689812     2.943291802022
C     -2.020356549129     2.367586187725     3.898473141718
C     -2.349768828985     1.663178806233     5.042984515230
C     -1.870699700347     0.384614763658     5.238258341645
C     -1.074905320587    -0.167087185186     4.267983161787
C     -0.767104622241     0.603861548904     3.120987280089
H     -2.397464276374     3.372633754874     3.750480639697
H     -2.974554905030     2.125685971070     5.788533778621
H     -2.116359629894    -0.170236871674     6.139594099686
H     -0.654981410584    -1.146533195016     4.364010641441
O      0.021929969251    -0.021713896389     2.228909006303
H     -0.297650618456    -1.301361740571     1.736033548830

