# STO-3G

title

0 1
C      1.192702005813    -0.459170850939    -1.715622645954
C      2.326458973150    -1.260348418454    -1.961249080539
C      2.999189496896    -1.181782022927    -3.196823390297
C      2.540018899794    -0.296155477617    -4.192560417947
C      1.413973793249     0.513803930675    -3.945889971048
C      0.743350075218     0.435276519544    -2.708950602306
H      0.690269205755    -0.542203335898    -0.754940282020
H      2.689797991472    -1.932084058601    -1.188198028033
H      3.874648201510    -1.800905185527    -3.382666006548
H      3.057957725453    -0.232791096011    -5.147386974315
H      1.065298544102     1.208932314971    -4.706435351687
H     -0.107324900548     1.084254384867    -2.516007650511
C     -2.492612585760     0.726384578483     1.060963840120
H     -2.788785463304     0.349320906862     2.036545561607
H     -2.711490356824     1.764988297177     0.836398604362
C     -2.029137039689    -0.129813518877     0.061476554447
H     -1.826179206070     0.271809364198    -0.919774969287
C     -2.055722507024    -1.601122831200     0.148898366494
O     -2.549619453276    -2.157797731703     1.167762839579
O     -1.742998204598    -2.342646327233    -1.004259155296
C     -1.956327736586    -3.758095833679    -0.916942205727
H     -1.652233910676    -4.234552745869    -1.873455577651
H     -1.350658190436    -4.201409307968    -0.095345114847
H     -3.032599010708    -3.983081061143    -0.741430015272
Pd    -0.292011057758     1.007183286388     1.146147087695
C      0.460199884368     3.326425189444    -0.353791745399
O     -0.512644745676     2.387594512030    -0.271351360981
O      0.420912391921     4.276962564298    -1.153042922896
C      1.674580735551     3.124964107414     0.613712751642
H      1.953685823520     4.126872122593     0.966031798688
C      2.854090413688     2.516576812325    -0.115168676091
H      3.731066714849     2.450367636279     0.558126528649
H      2.596727407274     1.494593284697    -0.456751328990
H      3.122568832389     3.135812900113    -0.996919761330
N      1.299711622787     2.204119166075     1.704554142574
C      1.701236803668     2.229560272588     2.944443239446
O      1.302541716923     1.368183539121     3.861986511427
C      2.636236620095     3.262352786540     3.428241364063
H      2.857242465934     3.078168693795     4.495991226866
H      3.568684777882     3.195203906839     2.845107674240
H      2.159916626260     4.252136244528     3.320621867596
N      0.651885974766    -1.968754704901     1.312035915498
C      1.116803983034    -3.245806218293     1.145992280121
C      1.305708276803    -4.064008100481     2.245444974278
C      1.022058346359    -3.604630802905     3.515474273410
C      0.558895773031    -2.321902484794     3.654722152921
C      0.378136514933    -1.535901713787     2.492984632069
H      1.335050465812    -3.613333324191     0.150389471473
H      1.668983352729    -5.068092282701     2.103732307076
H      1.159544671488    -4.244461106062     4.382923384331
H      0.299975771558    -1.906717165906     4.606879433259
O     -0.088690893243    -0.295236661141     2.715320425631
H      0.671329301663     0.589685305780     3.503067781476

