# STO-3G

title

0 1
C     -1.984858451809    -1.206150382252    -1.995553166832
C     -2.061205690547    -2.585272089640    -1.714800173113
C     -3.181281968640    -3.109399903329    -1.038562975852
C     -4.230908083873    -2.254913172327    -0.645437552943
C     -4.160214398932    -0.876042068750    -0.931256214452
C     -3.038245461128    -0.354099527418    -1.604821098281
H     -1.131334198619    -0.796910624343    -2.526834282306
H     -1.253251032694    -3.247740844076    -2.017902417584
H     -3.236298933392    -4.173589894213    -0.820334598983
H     -5.096534881498    -2.659508541439    -0.125564447855
H     -4.972524102022    -0.215708811111    -0.635105091216
H     -2.982658034021     0.710461333260    -1.826903448452
C      1.755322807052    -1.222392489781    -2.127095406182
H      1.791844816382    -2.153293784609    -1.569033286598
H      1.060754442443    -1.100300437923    -2.954794856793
C      2.690156757120    -0.210477932698    -1.907523279949
H      2.657578231582     0.672127896459    -2.532951548827
C      3.868353148941    -0.331761247883    -1.029968253762
O      4.278170478798    -1.471437966300    -0.682359820394
O      4.623072539105     0.825202336459    -0.767448491153
C      5.756102479008     0.645207609933     0.094002038871
H      6.264666096687     1.621357797738     0.244568306007
H      5.437156571230     0.259835919686     1.089732671280
H      6.487831839652    -0.063012507998    -0.357213090457
Pd     0.821413713344     0.246638048477    -0.685951254482
C      0.928026821457    -0.709379302160     2.000841280934
O      1.534422691703    -0.853101852484     0.796529903617
O      1.362956930981    -1.216455809799     3.047978864707
C     -0.400249318207     0.110068923516     1.971387980909
H     -0.472375374772     0.632611600586     2.933927766839
C     -1.590482154012    -0.814594615355     1.818664958631
H     -2.534191014015    -0.235212828670     1.792085537295
H     -1.501684700487    -1.381068253455     0.869254246785
H     -1.630057787030    -1.531644061745     2.665171776922
N     -0.391169024067     1.018257510557     0.807886932395
C     -0.972637498729     2.180830680892     0.705000098952
O     -0.971797154171     2.899810630834    -0.399494944984
C     -1.665571764433     2.797283582092     1.851979438297
H     -2.479096996161     2.129353144030     2.178060682438
H     -0.927738303205     2.960106595780     2.655482626211
H     -2.090408062201     3.770724481605     1.542920540631
N      0.220221808837     0.489999472830    -4.131838629470
C      0.017860678320     0.507680529845    -5.485147910054
C     -0.457254118458     1.652110308563    -6.098251729812
C     -0.726974193588     2.782059199117    -5.355972575766
C     -0.514267937618     2.737507217930    -4.002026108617
C     -0.027868671513     1.538055117822    -3.425541801846
H      0.229422625799    -0.378202577925    -6.072446153335
H     -0.613850380035     1.655818928478    -7.164325043125
H     -1.097144177929     3.685725828343    -5.832870182360
H     -0.697298460282     3.586358590583    -3.375341539896
O      0.145879954699     1.592430114072    -2.100788261201
H     -0.496196130604     2.425223631491    -1.240784046057

