# STO-3G

title

0 1
C      2.697059840003    -1.001486444561    -0.274547928307
C      2.650292129338    -1.365137364825    -1.635462218860
C      3.822332101274    -1.794076873526    -2.288517228118
C      5.040403976043    -1.858754686588    -1.582016810343
C      5.086024570624    -1.493559520659    -0.221767899081
C      3.913384178612    -1.064593792305     0.432266376368
H      1.789321480481    -0.674467623312     0.226616099580
H      1.705108761597    -1.306232705957    -2.171148240607
H      3.786001872729    -2.074823773625    -3.338838888053
H      5.945028309563    -2.190057544652    -2.086983366984
H      6.025724933316    -1.542714926651     0.323583375992
H      3.947873341394    -0.782739008566     1.482343476569
C     -0.025015069902    -2.820724027442     0.647972241083
H      0.548496469512    -2.862266992201    -0.273047614914
H      0.535794713132    -2.844103884079     1.576612922820
C     -1.416743352818    -2.919413952589     0.654079146266
H     -1.934096563046    -2.962408774628     1.600671829885
C     -2.236793247505    -3.216910953904    -0.534341201040
O     -1.679862430540    -3.398584571835    -1.651477294241
O     -3.612326071462    -3.454776298345    -0.359907211736
C     -4.332996807550    -3.840677116078    -1.538755477430
H     -5.405219449540    -3.982518387777    -1.285170581790
H     -4.258436743838    -3.054712886248    -2.324032680273
H     -3.940571510007    -4.801221766074    -1.943116534965
Pd    -0.746576886396    -0.719419005146     0.849618639520
C     -0.935195207496     0.116403328864     3.573269944337
O     -0.835958539033    -1.006540620707     2.825023449341
O     -0.958174548571     0.118082180964     4.815882051954
C     -1.067766067256     1.447959730426     2.755042475497
H     -0.556255888760     2.228363464863     3.333347985986
C     -2.522332971512     1.830930060871     2.581675743519
H     -2.599665997766     2.796386757262     2.042255337545
H     -3.044419881474     1.050624651595     1.987418850827
H     -3.014030873570     1.929412976366     3.572332897345
N     -0.514936823009     1.248502046121     1.404698926492
C      0.137540100137     2.094457674522     0.663655573208
O      0.558900438256     1.821922578768    -0.560874822085
C      0.481693931617     3.438874984420     1.157788862272
H      1.019254692288     3.989236903822     0.363343712209
H     -0.451555065633     3.969578681319     1.408102748985
H      1.138081990477     3.334423795344     2.039197666663
N     -2.837210671271    -0.312938892236    -1.190746088969
C     -4.009381041734    -0.140672927714    -1.876303963317
C     -3.983824762234     0.176816737813    -3.223200421184
C     -2.781088952997     0.323531215406    -3.885313949841
C     -1.621494416096     0.154014181845    -3.173807926689
C     -1.710564734211    -0.180402461768    -1.803640443001
H     -4.955552158634    -0.257237366267    -1.361040514467
H     -4.911422359979     0.306219631663    -3.755363398381
H     -2.754064581110     0.566817922262    -4.944027768751
H     -0.653382968638     0.236196750897    -3.623483601537
O     -0.535792039003    -0.336397613636    -1.166045738356
H      0.208994549984     0.909634000307    -0.944642508821

