# STO-3G

title

0 1
C      1.403510910757    -0.798430424304    -1.081379094550
C      2.719592173511    -0.757661889861    -0.576559692043
C      3.793318660866    -0.400867076060    -1.415574889803
C      3.553856779785    -0.084630702860    -2.768560188913
C      2.240893595627    -0.129875021116    -3.278690917012
C      1.168834770128    -0.488366055991    -2.436348530695
H      0.589843028994    -1.089500418436    -0.422762757949
H      2.904193137175    -1.005750614507     0.467643535063
H      4.806591491524    -0.373036081237    -1.020120123461
H      4.381886769832     0.190413131675    -3.418364739515
H      2.055031493323     0.112727374910    -4.322708345673
H      0.156162110949    -0.515547062075    -2.833057933236
C     -2.392065613956     0.103139669224     1.884361030580
H     -2.249128082159    -0.744856695565     2.547267140657
H     -2.694155753677     1.044963842128     2.334010630204
C     -2.382586047671    -0.048222544476     0.502952340261
H     -2.552426096372     0.819323514876    -0.117489855251
C     -2.366176340413    -1.339027415019    -0.204121310989
O     -2.879217046772    -2.354689652574     0.341217999741
O     -2.085162935779    -1.326624383373    -1.582239804951
C     -2.097373054354    -2.604139295509    -2.233473873878
H     -1.859621829371    -2.470639846375    -3.310496358606
H     -1.330720184691    -3.278098935092    -1.789585211266
H     -3.101928526601    -3.079103158240    -2.156355615308
Pd    -0.360645131068     0.927103616404     1.333135597903
C     -0.418563000418     3.576005871257     0.238061431691
O     -1.217198934136     2.507458102596     0.475362174145
O     -0.845342302491     4.664724152307    -0.181345395461
C      1.101890006912     3.324059743633     0.482644327040
H      1.520331880539     4.268216810433     0.854633652978
C      1.795183883648     2.954124453664    -0.812005426383
H      2.871042898872     2.756060390582    -0.636934770892
H      1.335816513589     2.035893003365    -1.228640998178
H      1.693312354296     3.776444881790    -1.550686254904
N      1.274803153379     2.195817125129     1.419875617683
C      2.234224153661     2.036448825835     2.290510305563
O      2.347003489589     0.980418279652     3.069543647099
C      3.278238681784     3.061925796152     2.479657590292
H      3.992935538197     2.712561935611     3.247569016913
H      3.809568838522     3.206047028362     1.525232548111
H      2.800840756795     3.995354660017     2.824751049039
N     -0.139994838970    -2.439767370827     1.381069753930
C     -0.169140464157    -3.807060382266     1.316848594306
C      0.544712043681    -4.557941105557     2.234331287286
C      1.277626827732    -3.939189953495     3.225102473421
C      1.277856264573    -2.568649874901     3.274748623692
C      0.526744831341    -1.854285864162     2.310302154522
H     -0.743958895878    -4.297793540343     0.540538120841
H      0.517189785085    -5.633049152831     2.172823098781
H      1.835629957723    -4.523693342742     3.951622847609
H      1.813334337456    -2.028680060093     4.028240586741
O      0.572584590335    -0.524449089959     2.439623968128
H      1.605830069485     0.216690644479     2.896474122682

