# STO-3G

title

0 1
C     -1.565266901074    -2.214482496808     0.776476987871
C     -1.516757364087    -2.048152649167     2.175572106367
C     -2.665377603995    -1.639520807262     2.882019566068
C     -3.869335944777    -1.398466921713     2.188357340519
C     -3.921750779376    -1.569273496509     0.789640560218
C     -2.771320954074    -1.978154428499     0.085308785656
H     -0.664922797287    -2.527318937522     0.253841104564
H     -0.583103191803    -2.226362396881     2.705001800878
H     -2.623134916514    -1.512557349110     3.961624028442
H     -4.758134639731    -1.085532205446     2.732050179753
H     -4.848177229846    -1.383288136299     0.251305443285
H     -2.814804447570    -2.098564768804    -0.994388738917
C      0.814709354009    -2.140779108953    -2.202926207311
H      1.186493444191    -2.863014305107    -1.481489962355
H     -0.184482970096    -2.277305217888    -2.604016112122
C      1.611922267553    -1.104505395056    -2.696275689465
H      1.207464820972    -0.442900712238    -3.448377665785
C      3.054061453531    -0.945960625101    -2.430540813196
O      3.694692600788    -1.850576778153    -1.831657042834
O      3.701704322677     0.198696021441    -2.927680972552
C      5.102921274223     0.299144991562    -2.636957214750
H      5.503252132569     1.240332273733    -3.071189898429
H      5.277323796508     0.319808863463    -1.536991658145
H      5.661468559363    -0.555073963085    -3.083025462129
Pd     0.387944205528    -0.310873211106    -0.958032551884
C     -1.997354350489     0.920465316329    -1.934530256033
O     -1.027851829024     0.053000356426    -2.298075524358
O     -3.034115192827     1.095162022569    -2.598900441601
C     -1.722860571400     1.742366410578    -0.636455852468
H     -2.685982191486     1.771254810432    -0.111953470199
C     -1.291890324456     3.152722660442    -0.993308571510
H     -1.155516921648     3.763496378541    -0.079150609513
H     -0.328066477000     3.114890322999    -1.542958510714
H     -2.058797908208     3.637320272475    -1.634032679950
N     -0.640737654859     1.130023772098     0.164084573028
C     -0.351242620175     1.335363990718     1.419010640579
O      0.714467662050     0.827740548011     2.009308275328
C     -1.182073408644     2.147182490393     2.330265521071
H     -0.549413915691     2.961565787668     2.723326975054
H     -2.068341589014     2.567153166482     1.840062604950
H     -1.502658948787     1.490113142807     3.158744539892
N      1.730553583517    -2.990626391908     0.607740992576
C      2.189399166375    -4.147660754607     1.176866448370
C      3.186837868665    -4.101698693784     2.133727486615
C      3.738799063566    -2.895359713066     2.508818995594
C      3.265505454395    -1.751969879209     1.919451247392
C      2.246542762767    -1.858131543340     0.941046632083
H      1.758359026328    -5.097847823073     0.884373512313
H      3.539479026402    -5.018400970453     2.575667341563
H      4.529831022164    -2.852617611177     3.252442295948
H      3.660342712137    -0.785450562345     2.154454360230
O      1.854050464113    -0.671209385305     0.439483390326
H      1.312439729973     0.201151332358     1.400378955156

