# STO-3G

title

0 1
C     -0.947100931964     0.703279384537    -2.428412567130
C     -1.892684737099     0.181911608185    -3.332878452736
C     -2.814065863937     1.039754145517    -3.964135233280
C     -2.787935494511     2.422742049779    -3.692603809087
C     -1.841888179048     2.944942852019    -2.788185914465
C     -0.922528032744     2.084794394999    -2.154918312822
H     -0.238372637283     0.038623534046    -1.943223275340
H     -1.911793530741    -0.886520477098    -3.539875342495
H     -3.545689466670     0.634413019691    -4.659473186479
H     -3.498720437139     3.086123002033    -4.180134106553
H     -1.820768615288     4.011460943063    -2.577092888093
H     -0.193398976539     2.487616307347    -1.455252822937
C      3.368977082159    -1.169302362121    -1.570021572785
H      4.165994167457    -1.191940347960    -0.832735637148
H      3.128233302211    -2.081778645529    -2.104974072665
C      2.797429081351     0.025312613612    -2.003359456713
H      2.082359339476    -0.028691773549    -2.811334936999
C      3.248879088478     1.365729786405    -1.586818938125
O      4.389692253631     1.509052601805    -1.068753139084
O      2.474719984185     2.477511536851    -1.962297183658
C      2.934852709037     3.746051220911    -1.476918192002
H      2.241388028425     4.544374000472    -1.817042810714
H      2.960030055884     3.754973100632    -0.362699649840
H      3.950960101618     3.975676702048    -1.870735516356
Pd     1.466113346546    -0.995475040744    -0.380989802847
C      1.611908474328     0.559660602455     2.012424230749
O      2.248999342333     0.345255870223     0.840094820854
O      1.904514774150     1.489408161278     2.783360708770
C      0.493758510306    -0.467952414555     2.361614269766
H     -0.291674003972     0.122032417573     2.850101130943
C      1.018416362501    -1.513954748756     3.326129788300
H      0.212448157731    -2.218139546524     3.613283688596
H      1.835976925459    -2.086794045963     2.840555813923
H      1.410912455627    -1.025791259397     4.243348732000
N      0.035512087767    -1.167553269291     1.142351503016
C     -1.097310814327    -1.795130316385     0.954060207750
O     -1.376694212130    -2.467697069406    -0.140658349765
C     -2.192826959454    -1.821992334122     1.945363693312
H     -2.417223688573    -2.880782298094     2.163383178937
H     -1.943978256460    -1.304974831050     2.879569760913
H     -3.075473840312    -1.345994095477     1.481447039852
N      1.285929396939    -1.940455653192    -3.748948688160
C      1.212984475241    -2.184147965750    -5.093475335598
C      0.321239429115    -3.123667441481    -5.577959311951
C     -0.494426571217    -3.823372620523    -4.714603270040
C     -0.401074622111    -3.557854596821    -3.372452607798
C      0.525949896046    -2.579535600208    -2.932840618168
H      1.854903309748    -1.638116919940    -5.774849535008
H      0.270805916674    -3.307699193121    -6.638425891388
H     -1.193600004221    -4.566406484308    -5.088929013772
H     -1.004734256346    -4.073735920597    -2.653724344154
O      0.533566122072    -2.383111976569    -1.604215813868
H     -0.575656185753    -2.510748305179    -0.867941852006

