# STO-3G

title

0 1
C      2.298170068964    -1.446898911679    -1.427311883383
C      2.595176436579    -2.720901528617    -1.953585148745
C      3.930250113639    -3.165595584986    -2.027845237988
C      4.973648772463    -2.332640838156    -1.576272738469
C      4.680596171546    -1.056372540869    -1.054228267174
C      3.344752625672    -0.613627836180    -0.981248015490
H      1.267887512260    -1.104634808043    -1.374397357971
H      1.785187788211    -3.358615247412    -2.307010941107
H      4.154307416587    -4.149056887354    -2.434748920179
H      6.004790066344    -2.673919473595    -1.632998990154
H      5.486364423348    -0.412284987717    -0.709491953088
H      3.115712427467     0.373716606429    -0.585453739588
C      0.023143065130    -2.632715350278     1.065705791982
H      0.781663391385    -2.632407247139     0.289038907966
H      0.370662993253    -2.643190052939     2.093088185732
C     -1.332977369141    -2.798182515770     0.776125810276
H     -2.036599351842    -2.900064316497     1.588362513370
C     -1.864359161028    -3.105277744528    -0.564508823781
O     -1.076277278229    -3.202009152411    -1.545035358280
O     -3.226452010318    -3.432356049280    -0.691418315838
C     -3.668749503747    -3.755177867075    -2.017332640933
H     -4.757175077803    -3.976411866367    -1.998823502675
H     -3.496329759672    -2.900627814825    -2.710715752858
H     -3.136807307587    -4.654499493231    -2.402495682356
Pd    -0.837656168415    -0.573158205744     1.128601488601
C     -1.260717409579     0.225759077159     3.835440752509
O     -1.093842331552    -0.887219164972     3.083324521793
O     -1.405740381788     0.207868014576     5.069417778156
C     -1.303111783867     1.573343415746     3.031825271049
H     -0.828602360238     2.334433279410     3.664957762994
C     -2.730730973855     1.986914458991     2.745084583761
H     -2.744367141279     2.962005483494     2.217528793720
H     -3.215242220774     1.225982206049     2.096401202893
H     -3.301314327969     2.079593598011     3.693075913944
N     -0.643846642801     1.385637190546     1.729332237732
C      0.105484948749     2.216562626291     1.068685202962
O      0.627081208740     1.945429219331    -0.120052745342
C      0.451582691356     3.538548245001     1.618534112063
H      1.076318095835     4.082630774689     0.886191154257
H     -0.481898678224     4.097775003562     1.796322359705
H      1.021505449041     3.394606035089     2.553016022664
N     -2.818270657097    -0.210146329581    -1.031423473728
C     -3.952361018735    -0.080269420196    -1.786800692831
C     -3.858277464405     0.284875314000    -3.118878971609
C     -2.625822657950     0.522950563951    -3.694606130828
C     -1.506693013146     0.392314591575    -2.913444570202
C     -1.665364308770     0.008635759203    -1.563104425141
H     -4.921170149853    -0.268778485113    -1.339394484563
H     -4.755853797312     0.381135535631    -3.706788636773
H     -2.544473470669     0.803141824413    -4.741378989310
H     -0.516904371056     0.536830069481    -3.296605075227
O     -0.528209774397    -0.121784684258    -0.856915825637
H      0.242072916367     1.070412527989    -0.562300332440

