# STO-3G

title

0 1
C      0.246386909793    -0.108563877754    -2.279090415939
C      1.376885224165    -0.803217498917    -2.755789750799
C      1.280654323118    -1.604843644872    -3.910838062867
C      0.052137460493    -1.718616174933    -4.591454936261
C     -1.082134745481    -1.031993535539    -4.112922891649
C     -0.983393877217    -0.230004604480    -2.958610636025
H      0.292242049044     0.514240447437    -1.389676439770
H      2.322078150165    -0.740543484011    -2.221988314071
H      2.155135036166    -2.142381835324    -4.270546384361
H     -0.021258248893    -2.338823212759    -5.482445460308
H     -2.032751590432    -1.124013908762    -4.634651664553
H     -1.860449968354     0.287738306926    -2.579050459907
C      2.502169074480     1.305155077125     1.709242466919
H      2.133061509992     1.914031188790     2.530223503048
H      3.198741219317     0.508782476696     1.949826126906
C      2.252315462444     1.643290050582     0.378950547586
H      2.712138646601     1.060743512627    -0.406188404615
C      1.635887930229     2.912018664656    -0.046352034289
O      1.639843958047     3.205406806922    -1.271679959123
O      1.260273673782     3.857471012546     0.928078048207
C      0.762319345078     5.107287036594     0.431908693695
H      0.489470356499     5.759764147662     1.288422864310
H      1.538069397658     5.629258238271    -0.172720406736
H     -0.147616492609     4.952309973438    -0.188882705157
Pd     0.837436577602    -0.056094979419     1.162694973654
C      1.900208105948    -2.631042258367     0.496746104168
O      2.231880292602    -1.318631380075     0.511323325539
O      2.694683342902    -3.528989840306     0.169881532357
C      0.424919651210    -2.958740622880     0.903555215527
H      0.474207511251    -3.869566166938     1.515139178268
C     -0.426826639306    -3.236431699161    -0.316960647582
H     -1.447164383914    -3.543675874351    -0.015570553578
H     -0.505558866412    -2.320705205854    -0.934150478113
H      0.027449832117    -4.044828052968    -0.927753274656
N     -0.168673044796    -1.809416822122     1.615469357300
C     -1.046540087899    -1.835497584638     2.578947530443
O     -1.519563886591    -0.753385126602     3.169061788320
C     -1.562794509548    -3.109074498438     3.114479796442
H     -2.045651820039    -3.669032064211     2.297398655251
H     -0.720145902897    -3.671526525109     3.549915377357
H     -2.307836675663    -2.898926782961     3.904871329050
N     -1.166271239940     1.999540088308    -0.078205127771
C     -1.955445597069     2.813816734288    -0.845071865799
C     -2.943334961175     3.578085689633    -0.248813976528
C     -3.140756594770     3.525152035348     1.116267111354
C     -2.333972199370     2.701847695479     1.859334973439
C     -1.337294718481     1.949559124416     1.195287138590
H     -1.800335278466     2.859636331529    -1.916799565507
H     -3.559427639597     4.216445616452    -0.860170519857
H     -3.913204235995     4.124367560119     1.590696030862
H     -2.418951151637     2.624195923993     2.923758942600
O     -0.576499156043     1.180795941085     1.992907582585
H     -1.180343243183     0.167729994872     2.758809659862

