# STO-3G

title

0 1
C      2.357709526523    -1.037477513825    -0.799013520775
C      2.940883559053    -2.320096520868    -0.794162063841
C      4.292726178450    -2.481282294428    -1.157383785001
C      5.061950107010    -1.358835108784    -1.523707985407
C      4.479983415157    -0.075167363369    -1.522168485063
C      3.128303847693     0.086249565737    -1.158691386416
H      1.313903789330    -0.911451546999    -0.523811055124
H      2.352425961587    -3.187214357018    -0.500867887954
H      4.742254914650    -3.471621613313    -1.151683112740
H      6.105482281197    -1.483260116273    -1.804141431048
H      5.074662239055     0.792221158541    -1.799745413466
H      2.676834487016     1.075159614404    -1.144218585116
C     -0.876831201622    -2.494856916983    -1.222227006712
H     -0.210903690972    -3.213581571216    -0.752805797732
H     -0.476379413304    -1.920083998659    -2.052213169254
C     -2.234433029856    -2.427870189873    -0.918391885558
H     -2.842246638710    -1.737640029152    -1.488825291337
C     -2.923308146807    -3.346566313780     0.005852881994
O     -2.390206704990    -4.448668714616     0.307149749471
O     -4.241442180002    -3.043793999274     0.391012844692
C     -4.832890925617    -3.946774628976     1.335816430768
H     -5.860518282363    -3.603905406494     1.581435006615
H     -4.900128662111    -4.974786020321     0.912578855825
H     -4.238794914603    -3.974698226122     2.278446857730
Pd    -1.092197097368    -0.785830466491     0.242045253753
C     -1.079355417375    -1.364276258805     3.037770344938
O     -1.189140976831    -1.968293165691     1.830283691548
O     -1.096202500876    -1.982815718268     4.114758239423
C     -0.978295600199     0.195822668912     2.990837964609
H     -0.288605003675     0.489813630762     3.792768742875
C     -2.330983673477     0.827261511791     3.247176910614
H     -2.245362941253     1.932349840585     3.240440279301
H     -3.041853193111     0.519928247291     2.451541862368
H     -2.724058247679     0.502034766578     4.233569504719
N     -0.545005273154     0.623849251889     1.648456005804
C      0.204161289714     1.646358095512     1.338784327074
O      0.493419092410     1.987555988441     0.098359098215
C      0.812589995875     2.492510117529     2.381582819073
H      1.392448659182     3.300478843518     1.898437034485
H      0.008522454568     2.931685795773     2.994138457831
H      1.492105551994     1.869409197785     2.989260612306
N     -2.500444153861    -0.013687151915    -2.791898885878
C     -3.148939776770     0.223303483236    -3.973656981134
C     -2.724689732853     1.245636657568    -4.802927798744
C     -1.647588119172     2.030535177141    -4.449537404634
C     -1.016764007746     1.771986268443    -3.259666427293
C     -1.496714239925     0.713737524235    -2.449221310448
H     -3.994165495873    -0.393247466182    -4.256480671329
H     -3.240829330427     1.422726262451    -5.732012330274
H     -1.306142747813     2.831998543745    -5.099241033775
H     -0.169045285864     2.340060586413    -2.935906772339
O     -0.808253250489     0.530081917830    -1.315637313650
H     -0.035251195032     1.414737566350    -0.653565371778

