# STO-3G

title

0 1
C     -3.769743799648    -1.036195900175    -1.279944274094
C     -4.462170968722    -1.986925835178    -0.504759286264
C     -5.683320114812    -2.523452868971    -0.960154845761
C     -6.216284157700    -2.107945860612    -2.196578344216
C     -5.528652573683    -1.153553537319    -2.973280749707
C     -4.307547208934    -0.620113327042    -2.515987943503
H     -2.813592161408    -0.634935973277    -0.952658453218
H     -4.051730213653    -2.301203313228     0.453618346145
H     -6.214231198314    -3.256771524943    -0.357049404171
H     -7.158339467205    -2.521494930456    -2.549938212443
H     -5.940751014037    -0.829011773083    -3.926375369657
H     -3.775262832340     0.116683435956    -3.114532921120
C     -2.761291025001     2.247400857275    -0.145215921121
H     -3.098557926191     1.353000001885    -0.653282405393
H     -2.612928729587     3.123016738133    -0.764459450472
C     -2.632144502378     2.327657321871     1.228001944406
H     -2.383043120758     3.270265747250     1.686759117077
C     -2.997241117223     1.250161492210     2.167471900622
O     -3.282213814397     0.101990254055     1.735379202538
O     -2.975009356517     1.518631038912     3.551921403085
C     -3.388962662209     0.437528168528     4.400133945930
H     -3.348524194172     0.760431084475     5.462439156060
H     -4.437265375961     0.136572670227     4.171206002281
H     -2.720393074785    -0.444262392597     4.273154308213
Pd    -0.511178704850     1.771461086144     0.240379008365
C      1.821257635632     0.178872297730     0.663543203471
O      1.418656478633     1.197085305859    -0.101292493064
O      2.890151685042    -0.450899256244     0.553739961871
C      0.798178020557    -0.182812126714     1.816537222160
H      1.370536813794    -0.584229182492     2.662241700905
C     -0.210099199550    -1.212310927391     1.364466385602
H     -0.937745477706    -1.410470294438     2.177683787281
H     -0.761636574355    -0.839753144814     0.475535282376
H      0.305664492019    -2.157429172182     1.095789636122
N      0.048757321593     1.056366220883     2.100984291126
C      0.065989243461     1.755677239187     3.173330530938
O     -0.508292151945     2.992165507721     3.150186419666
C      0.713761200445     1.282838579622     4.415670610836
H      0.246171061371     0.323960964820     4.702468028482
H      1.791046868461     1.148333430717     4.209215839487
H      0.595633463758     2.016331904070     5.231549028334
N     -0.897189160528     0.211159283729    -2.227568337529
C     -0.911793325324    -0.758209131681    -3.194094230319
C     -0.724722872029    -0.418663096580    -4.522103245197
C     -0.498188917740     0.893070558766    -4.883404621709
C     -0.472555976034     1.844508308027    -3.898473170744
C     -0.667947833778     1.445725483277    -2.553929673707
H     -1.093060374008    -1.789989765642    -2.916717475015
H     -0.746406457820    -1.189984105108    -5.273009045565
H     -0.338924430919     1.164639170230    -5.923122864419
H     -0.281092998292     2.878476491217    -4.096742929825
O     -0.605067221054     2.436862908986    -1.670591149198
H     -0.760954879122     3.362726712384     4.016027328190

