# STO-3G

title

0 1
C      0.834968683522    -0.149793658408    -2.360545926235
C      1.280098140685    -1.417899265357    -2.787134731081
C      1.247088018974    -1.751790062907    -4.156066705480
C      0.778888315452    -0.818083075092    -5.101769522138
C      0.351318706232     0.456559914923    -4.678259284563
C      0.378626054051     0.787381741624    -3.309195647145
H      0.824529697590     0.111410816266    -1.306314211719
H      1.666273037838    -2.133513919213    -2.066962400083
H      1.592204042724    -2.730732260594    -4.481120105626
H      0.758013368857    -1.076415134477    -6.158446699443
H      0.007826834799     1.186243076139    -5.408597636914
H      0.067981709798     1.776985360938    -2.980817092653
C      2.922033856789     0.896443900234     0.614229237298
H      2.980522043248     0.667164393599    -0.444745504681
H      3.547576331576     0.295916570093     1.265411762197
C      2.177206619022     1.948613545981     1.104937045171
H      2.167859960122     2.160452107552     2.164454907851
C      1.467750585300     2.939202963134     0.274540812239
O      1.541844666246     2.877918376016    -0.982008998775
O      0.818521080659     4.010572602040     0.913997473231
C      0.106528728996     4.912137031871     0.055626078404
H     -0.372950694376     5.703295472666     0.670513674121
H      0.799177211775     5.401505274049    -0.666129602416
H     -0.692707460850     4.375099446010    -0.503334813272
Pd     0.961324445300    -0.147480692969     1.338963035590
C      1.465249118495    -2.858912236286     0.557012719276
O      2.086630816511    -1.661953627984     0.621119766579
O      1.996305608650    -3.886522598642     0.098052211412
C     -0.008689409259    -2.865138263565     1.076147889210
H     -0.167132809857    -3.831397949721     1.572296969373
C     -0.995242445795    -2.725429108293    -0.063425044933
H     -2.031888008696    -2.801830367707     0.322053895737
H     -0.873683206781    -1.733461086348    -0.548119427674
H     -0.828648076669    -3.523219817015    -0.817463954868
N     -0.203846752805    -1.703740170018     1.958105679153
C     -0.905627639392    -1.628836105650     3.051396750841
O     -1.057582465121    -0.515319268400     3.749405697885
C     -1.571998199937    -2.817623785230     3.611209564046
H     -2.278525852942    -3.210993868417     2.861096953871
H     -0.797875916451    -3.560135065393     3.868719966766
H     -2.124505986086    -2.531144263555     4.525786821401
N     -1.274948141055     1.361165769280     0.088995650578
C     -2.274414464356     1.801265439151    -0.735865283695
C     -3.307630252927     2.565248351470    -0.220442836051
C     -3.341590872066     2.883175848178     1.122788769581
C     -2.330749730706     2.421935836285     1.926668090750
C     -1.300401847879     1.650711500778     1.342208542827
H     -2.252328186144     1.551828304802    -1.790165477140
H     -4.089102054402     2.909729416984    -0.877359519763
H     -4.148020556889     3.485528309749     1.532300846209
H     -2.281856016399     2.643398076134     2.973154052866
O     -0.331650225291     1.240152397108     2.184276217868
H     -0.748329068181     0.349789121731     3.223496691946

