# STO-3G

title

0 1
C     -0.999708499639     0.468495205158    -2.357255639343
C     -0.231799396636     0.324870686634    -3.530808592374
C     -0.666924585543    -0.532077773529    -4.561760388229
C     -1.872809766144    -1.248232603859    -4.421796823671
C     -2.644174750411    -1.105544698489    -3.250284605822
C     -2.207484769646    -0.246819004509    -2.222130997533
H     -0.693697232481     1.131637966548    -1.553485469716
H      0.705715555832     0.865735749410    -3.641360960810
H     -0.069344143919    -0.644239255408    -5.463748604134
H     -2.207935224039    -1.910357754573    -5.217440928412
H     -3.575873037121    -1.657107250273    -3.141615354294
H     -2.799004054590    -0.132436623988    -1.315371303792
C      1.565766986014     2.268668559330    -0.623945259369
H      0.596773517801     2.753965248146    -0.545610373725
H      1.921423299880     1.972397862776    -1.605663913266
C      2.405813335774     2.114797688602     0.479104592010
H      3.382210042382     1.670164579981     0.347488349700
C      2.144022334229     2.680828322136     1.814787219534
O      2.932082155895     2.397815075976     2.755487500045
O      1.057769949868     3.552721873075     2.009429456302
C      0.815804894201     3.964726856102     3.360886534731
H     -0.071231819381     4.633477797075     3.385411495044
H      0.603629640857     3.083910903770     4.008217600003
H      1.688703251430     4.524469570754     3.766588284240
Pd     1.203842896670     0.198758593305     0.216033146817
C      2.772670099884    -1.769806659361    -1.140888632959
O      2.681492987203    -0.431820867285    -0.949395961981
O      3.695859152460    -2.302917019286    -1.779318263939
C      1.605627150927    -2.615607852211    -0.534007181363
H      2.062346333009    -3.534104057120    -0.141925994076
C      0.600877060205    -2.986147370347    -1.605133770715
H     -0.205741619822    -3.615880693027    -1.182104532825
H      0.144334594449    -2.066700668732    -2.020898683583
H      1.100944026761    -3.543572547597    -2.424772249626
N      0.895551727181    -1.830857399687     0.495503030531
C      0.294839186159    -2.278936079844     1.563068073064
O     -0.346972851380    -1.506107461155     2.417542394364
C      0.318901857609    -3.711150780698     1.915518997464
H     -0.141038861747    -4.288593523923     1.097787841713
H      1.367368587440    -4.009246066538     2.083713701032
H     -0.258254025393    -3.868647186273     2.846030052073
N     -1.419983268080     2.353267217498     0.327404521313
C     -2.472912056642     3.222456137716     0.238919463010
C     -3.384447708044     3.313521773276     1.275389081672
C     -3.236239749669     2.538396015550     2.405983216162
C     -2.169095047822     1.680281281679     2.471448509370
C     -1.266534399104     1.628617169351     1.380230833249
H     -2.593395377303     3.832140937122    -0.648814583637
H     -4.211731718803     3.998757401257     1.193944081533
H     -3.946677418124     2.607853205444     3.225297557679
H     -1.991526975531     1.060251132190     3.326017697882
O     -0.255565947088     0.763151955425     1.545544839274
H     -0.383001532181    -0.470256838900     2.148378083976

