# STO-3G

title

0 1
C     -3.030292321131    -1.513100864891    -0.921437803657
C     -2.412261422296    -2.425836828688    -1.801125627287
C     -2.798581327658    -3.780805547542    -1.806280365642
C     -3.811154713255    -4.228850630539    -0.933649571298
C     -4.431768714868    -3.319555630535    -0.054074246626
C     -4.039368515283    -1.965475859616    -0.047267566555
H     -2.717242578190    -0.473425323209    -0.944863051246
H     -1.625195459353    -2.075435043211    -2.463279800259
H     -2.315621709051    -4.482926119651    -2.482707536770
H     -4.113418712901    -5.274083123082    -0.939020333692
H     -5.216199142951    -3.662798787388     0.618015326411
H     -4.516037511439    -1.266853290148     0.637369855497
C     -3.127689747900     1.985657169913     0.045863607709
H     -3.759752176318     1.327019315091     0.622772556236
H     -3.147054726503     1.882195798101    -1.034527827449
C     -2.430159259694     3.044960702995     0.626668330239
H     -1.880371682411     3.706727255031    -0.024838748727
C     -2.506506065979     3.502002203546     2.027373082015
O     -3.267717626632     2.924684894255     2.852495369077
O     -1.744688616582     4.619747758294     2.407451014581
C     -1.866321166258     5.036477053757     3.774349984321
H     -1.218991403764     5.924072648957     3.944826832992
H     -2.916443596684     5.323302604519     4.008783856376
H     -1.535095013581     4.229053819752     4.465284798635
Pd    -0.949265180292     1.281588563715     0.256980341847
C      1.387483034088    -0.130497692192     1.187151152357
O      0.996656758996     0.704184028186     0.221248718689
O      2.565127855293    -0.337629717875     1.541931867286
C      0.218862804677    -0.947644544665     1.823990008921
H      0.538108793987    -1.250481705453     2.829249576715
C     -0.055140197876    -2.183715645136     0.989077906231
H     -0.926683473469    -2.746248861910     1.377893811070
H     -0.275292088654    -1.877826317339    -0.054487258463
H      0.834375002755    -2.847716651331     0.987198104726
N     -1.033531122325    -0.140308295890     1.821899118535
C     -2.001384252432    -0.307341632228     2.648546018943
O     -3.209868778030     0.258892058230     2.389847734825
C     -1.891048024821    -1.155119543673     3.858834346299
H     -1.638594870669    -2.184368474285     3.552843604792
H     -1.102345255147    -0.731331421282     4.505508725133
H     -2.849220244181    -1.177464500703     4.407114635240
N     -1.631408009968     1.011705934325    -2.687035281460
C     -1.942563925740     0.627643910178    -3.963447924938
C     -1.470361475067     1.352083280806    -5.042844165320
C     -0.678223235772     2.464189825428    -4.845940857515
C     -0.381744919547     2.831697750536    -3.560599093375
C     -0.884970876975     2.054541488712    -2.489462280907
H     -2.566543924964    -0.243383493302    -4.125136948030
H     -1.721450864284     1.039326153984    -6.042201956915
H     -0.299015739967     3.034958093919    -5.689020996379
H      0.233650158188     3.676210790139    -3.326735259195
O     -0.542871775373     2.504977094877    -1.285986635294
H     -3.722416306926     0.566390143545     3.163164512825

