# STO-3G

title

0 1
C      1.338804480384    -2.759703473006     0.685409322482
C      0.770350955421    -3.619467931050     1.646542568944
C      1.374871053455    -4.861424516825     1.926034493256
C      2.546999571944    -5.243731157022     1.242729365736
C      3.112898193662    -4.383513046870     0.279519263458
C      2.509486420784    -3.140833909339     0.000091564544
H      0.875963777146    -1.802370910316     0.471866868807
H     -0.137510418879    -3.317838786831     2.164455676216
H      0.934167912883    -5.524196895158     2.667563494424
H      3.012981798520    -6.203072850763     1.457790108742
H      4.016037474474    -4.680580636822    -0.249347678264
H      2.929124977293    -2.467803565078    -0.741311207758
C     -0.478966514333     2.337600638018     0.979729938593
H     -0.920487984766     1.814826400542     1.821448089449
H     -1.023356407120     2.271064371255     0.042771885680
C      0.654914762122     3.166966205018     1.110897085350
H      0.977841152865     3.754557836857     0.263459808568
C      1.274009531288     3.525850578069     2.399443999933
O      0.744597862318     3.164258609276     3.483203966518
O      2.478969642235     4.249301771707     2.381376836859
C      3.050539139190     4.541674433329     3.664606133738
H      3.994835960135     5.111285949960     3.527503457036
H      2.355601051284     5.162699208406     4.274729584830
H      3.285271601398     3.602932739644     4.216776726209
Pd     1.297764507245     1.193906524063     0.335444586907
C      1.069632551755     0.457747949491    -1.942643815337
O      2.002200332699    -0.238264775131    -1.360795986407
O      1.012935417680     1.762560238309    -1.675062600772
C     -0.180809648212    -0.258485964890    -2.492783316251
H      0.111856296117    -1.204232871540    -2.974208253572
C     -1.004441320762     0.584695500426    -3.438983120657
H     -1.907647289195     0.021015611521    -3.747920087644
H     -1.326897700665     1.515286815879    -2.925358126959
H     -0.407236184373     0.846135173901    -4.336424088280
N     -0.898653340873    -0.369775676907    -1.215220825241
C     -1.547037362627    -1.377543655484    -0.749992700595
O     -1.985545711999    -1.431119532014     0.516383153120
C     -1.863226357543    -2.565971136417    -1.564223194978
H     -2.412634766633    -2.235599884867    -2.461081882259
H     -0.914270289008    -3.064219412406    -1.825096501581
H     -2.489669670544    -3.258072335778    -0.971074901908
N      1.591595755135     0.395006422481     2.145244939302
C      2.854853281465     0.376933710632     2.666459532944
C      3.094339904760    -0.245860482093     3.870809818534
C      2.071281967201    -0.859187801328     4.558659480330
C      0.812645811429    -0.843133338912     4.019783965167
C      0.576928708457    -0.206142602375     2.776955203140
H      3.664663942792     0.862026818665     2.134273633844
H      4.092807048225    -0.255241331696     4.273880203076
H      2.259627955422    -1.351074693981     5.508859453584
H     -0.018995611138    -1.307815237768     4.507364091034
O     -0.611855640570    -0.266668723670     2.321893000418
H     -1.483655236892    -0.837377257154     1.177134626847

