# STO-3G

title

0 1
C      0.226113814100     3.129783606519     0.367998009481
C      1.523522341181     3.715617332252     0.540822424759
C      2.061250354600     4.579383834734    -0.454826033487
C      1.329811347729     4.860831543013    -1.611149632010
C      0.050678526535     4.272182051023    -1.800956630887
C     -0.486348659360     3.414785674471    -0.838872831122
H     -3.761335770090     0.238835469828     0.555907008526
H      2.037750937326     3.636905600441     1.495973292594
H      3.037065878958     5.030322287902    -0.292551712757
H      1.732866948067     5.535410982051    -2.362710366685
H     -0.513623717882     4.486462417506    -2.705490200990
H     -1.450344507794     2.940180635657    -0.997029157766
C     -0.405065234482     2.288143599885     1.490973229705
H     -0.553029951028     2.880883574608     2.400778475502
H     -1.374482995068     1.927842773039     1.144100939668
C      0.543544591425     1.081230975344     1.674576911523
H      0.077129262550     0.126508944515     1.470374010484
C      1.431419554655     0.960732868792     2.849211663572
O      1.861858711434     2.003992869841     3.407498965661
O      2.007722476238    -0.291280316928     3.115806637702
C      2.880119112539    -0.351242634283     4.252789908409
H      3.256252958691    -1.390229817887     4.372374832294
H      3.756781612857     0.322013226687     4.117443903708
H      2.335882503308    -0.070609422402     5.183198404581
Pd     1.581416245591     1.373138182882    -0.081837700757
C     -1.343446241449    -0.955784858503    -0.212814007157
O     -1.383141935196     0.161473587898    -0.780799969529
O     -0.320276962330    -1.822385912407    -0.270796054501
C     -2.478197373853    -1.435693987835     0.721515908347
H     -2.014304754853    -1.956549053709     1.563374605631
C     -3.446668250454    -2.369774993280     0.029599551204
H     -4.220120939594    -2.699942786899     0.753599259433
H     -3.944946577369    -1.834193380512    -0.804474711829
H     -2.910591014474    -3.258466368152    -0.362531471585
N     -3.229197254403    -0.293274611022     1.233765111769
C     -2.920447508240     0.257052710209     2.444041027891
O     -1.982953123312    -0.127643696890     3.181699243256
C     -3.776046758592     1.373853927299     2.904559031876
H     -4.226261832218     1.067505206729     3.863437752499
H     -3.130937895087     2.254485639572     3.052066086812
H     -4.569124764825     1.591667564479     2.167652500018
N      2.429670838970     1.057389405605    -2.128470942587
C      2.867738292403     1.586788955935    -3.308744369136
C      3.131754311783     0.748350219246    -4.378032004081
C      2.952517465673    -0.618124064996    -4.265258424443
C      2.507965985839    -1.125522350859    -3.069358220042
C      2.256152520820    -0.229324121072    -2.010276095985
H      3.006211287011     2.657702383182    -3.402639698167
H      3.476685879423     1.170485555078    -5.307490493388
H      3.158206576500    -1.275975220273    -5.105485152268
H      2.348379171519    -2.172272096807    -2.910646724219
O      1.811447372125    -0.700168140637    -0.856831473590
H      0.582880750865    -1.422855248122    -0.632979909067

