# STO-3G

title

0 1
C      0.110678071156     3.251807742599     0.295365442654
C      1.450706945375     3.685040953378     0.584489242217
C      2.165026988610     4.476913564062    -0.361556507829
C      1.572689102384     4.821140140479    -1.578332626312
C      0.255488443032     4.378172912118    -1.877592100902
C     -0.461843837506     3.599016161425    -0.966842806161
H     -3.608006536676     0.453357490530     0.883729983134
H      1.850833485871     3.581068497635     1.591624588563
H      3.165978745967     4.821446752615    -0.114593440155
H      2.112079052953     5.434309519805    -2.295816630230
H     -0.199817546487     4.643943680993    -2.828412877480
H     -1.458939122097     3.239725472614    -1.209621382370
C     -0.678445883892     2.477727512719     1.361849037982
H     -0.839032090933     3.085421980673     2.259564353344
H     -1.655160888026     2.195590490321     0.962347574817
C      0.183495654910     1.214628354476     1.597593084380
H     -0.293868560179     0.288649496529     1.317578531761
C      0.970337425209     1.013020164887     2.832182026595
O      1.212728425582     2.000637082367     3.574224401790
O      1.737387437774    -0.157538016836     2.923152153763
C      2.471159392961    -0.330157085469     4.143377137319
H      3.015490874148    -1.298658267971     4.110280078519
H      3.218383236535     0.484441366047     4.278958560597
H      1.781478457575    -0.352677908499     5.017888049525
Pd     1.444930769271     1.386588598011    -0.013392535007
C     -2.074503173985     0.006674124492    -0.989229255941
O     -2.867742643533     0.960847738446    -1.133621097581
O     -1.076354261024    -0.250589066306    -1.850995205715
C     -2.228453387933    -0.956027786555     0.221773455850
H     -1.254465111573    -1.281691649641     0.599758772695
C     -3.029140972739    -2.187508948842    -0.143359731252
H     -3.108920507779    -2.851081203249     0.742828968450
H     -4.051707612146    -1.882036510566    -0.449880749456
H     -2.537601901582    -2.739288729298    -0.970743419224
N     -2.954194541390    -0.227926595306     1.260279949838
C     -2.617164356388    -0.278136943367     2.573851035392
O     -1.655018958182    -0.935273147438     3.040228335807
C     -3.433829991358     0.538248702505     3.498231815609
H     -3.852242300357    -0.142847632814     4.257724051502
H     -2.763569261536     1.274687170545     3.970783561159
H     -4.249734175389     1.049739886224     2.957231229938
N      2.582971228393     0.863464263160    -1.860185967938
C      3.435924692054     1.256664024099    -2.852554943131
C      3.749858533723     0.376550303908    -3.872809134935
C      3.206818257373    -0.894317362119    -3.901666337973
C      2.349856075758    -1.264079168764    -2.894753889640
C      2.065582054844    -0.333167743866    -1.874881979609
H      3.860623670897     2.253812746859    -2.837284657575
H      4.422039616735     0.691343906963    -4.654322818707
H      3.451503146036    -1.584595452310    -4.704779786127
H      1.894421584033    -2.232560052450    -2.854437080516
O      1.213328461386    -0.674813136069    -0.913440734546
H     -0.188882532919    -0.616908082561    -1.443823901913

