# STO-3G

title

0 1
C      0.484093535036     3.045913732506     1.293734859921
C      1.813767695349     3.463972227517     0.949335037959
C      2.022492849558     4.413941572456    -0.092226304526
C      0.935406078726     4.955174453923    -0.780644796237
C     -0.385229554080     4.558404179461    -0.437699649330
C     -0.608388729285     3.615665669771     0.567988929553
H     -2.659009256519    -1.202530913192    -0.884376167470
H      2.659113050505     3.203368525650     1.581216662313
H      3.037317388788     4.725963490867    -0.326631131910
H      1.095232508580     5.692853957518    -1.563481520476
H     -1.232547245057     4.998193916425    -0.959282778680
H     -1.614131979969     3.297233936912     0.828503396703
C      0.237473314846     2.079919597311     2.470328667708
H      0.417066496022     2.574028017083     3.432763850634
H     -0.804821622395     1.753695551415     2.435171329472
C      1.154576141508     0.870150826225     2.187938995020
H      0.638068552499    -0.078708681685     2.108694903424
C      2.450435917947     0.693066114252     2.876425925003
O      3.180678656482    -0.268870996954     2.528834608539
O      2.957689002558     1.733022415310     3.675271136469
C      4.248339778120     1.503523341525     4.258315924053
H      4.534201765527     2.381016794812     4.877646908131
H      4.231082062330     0.604931048321     4.916366000903
H      5.022520659720     1.368152695103     3.469155104397
Pd     1.412455648793     1.250302654161     0.179387306377
C     -1.096039525720    -1.923385354670     1.223239280862
O     -0.427300754256    -1.883739979725     2.271521588315
O     -0.596253089388    -2.157618859600    -0.017392850552
C     -2.610333671396    -1.594224660689     1.172007996912
H     -2.859560992146    -1.038435588749     2.078604616682
C     -3.483974217778    -2.824413323475     1.073044316361
H     -4.549927076507    -2.517118247764     1.052719484532
H     -3.251833288213    -3.370828404244     0.136034660804
H     -3.310130213276    -3.487624410478     1.945209452626
N     -2.864290718754    -0.752270032362     0.001418964554
C     -2.780880006593     0.600527304550     0.083152213957
O     -2.633790981558     1.247848965137     1.151079639908
C     -2.874588754691     1.348507840342    -1.191139158545
H     -3.670642700626     2.102580489443    -1.074100604468
H     -1.901089786438     1.834651465414    -1.365564616062
H     -3.120455966254     0.670514708709    -2.027520552918
N      1.395506778409     1.001479251656    -2.064321671750
C      1.387174514864     1.545522713064    -3.317384377985
C      1.295442907471     0.717500041791    -4.422162689593
C      1.217931545813    -0.654979278170    -4.272126791586
C      1.235815041459    -1.178059083271    -3.003230389603
C      1.332026996710    -0.292620968112    -1.910092545822
H      1.443225754068     2.621037709932    -3.440123576720
H      1.284553478267     1.151104293261    -5.408714994697
H      1.145245131044    -1.305410062930    -5.139825297848
H      1.181243902192    -2.231053421149    -2.813404496430
O      1.341245856046    -0.781900617660    -0.680902063574
H      0.345622301774    -1.746512890872    -0.234883304066

