# STO-3G

title

0 1
C      0.171840129134     3.382157362969     1.095179617439
C      1.451957844449     3.894293715503     0.699910437375
C      1.572643945318     4.717266610530    -0.455266454206
C      0.442486507521     5.042541834306    -1.208933826207
C     -0.832496387975     4.552860479233    -0.818423800918
C     -0.966415578135     3.731753265843     0.303505394861
H     -2.303040435541    -1.294882817223    -0.672083233066
H      2.312092697791     3.800927629306     1.358503634361
H      2.550774398592     5.106672256456    -0.726444702035
H      0.533236708479     5.686594204915    -2.080386684831
H     -1.714510262719     4.827848121176    -1.392283669384
H     -1.935951860579     3.351202348063     0.612474646594
C      0.010754547112     2.575178462171     2.399772968860
H      0.207161568789     3.206366175720     3.274636350499
H     -1.017647953287     2.208739185380     2.455781704175
C      0.972568195929     1.373284603168     2.258646193815
H      0.483175059562     0.408448714312     2.288519049784
C      2.265186281229     1.312003584326     2.976542825162
O      2.813778485186     2.378588819832     3.359061337383
O      2.958023292172     0.092547840097     3.003695009396
C      4.221500179064     0.099403356300     3.682588464879
H      4.660627780198    -0.921135939536     3.648655502751
H      4.933189696556     0.800323405167     3.190512551794
H      4.094987757629     0.386889051990     4.751022481209
Pd     1.255233519680     1.554292727781     0.226986646382
C     -0.827117713654    -1.740508017714     1.536184231364
O     -0.202989587942    -1.583600188210     2.600098701696
O     -0.264711424548    -2.022674723771     0.332036522720
C     -2.356050319639    -1.524541500806     1.411106505247
H     -2.676636684561    -0.906832518541     2.253302203898
C     -3.138951594110    -2.818123897296     1.402707225053
H     -4.222600321946    -2.591199135298     1.329546977955
H     -2.841491904704    -3.425885043707     0.523673066772
H     -2.945996580504    -3.388153361985     2.334741060134
N     -2.625938053663    -0.814567276326     0.161760691291
C     -2.795405410209     0.530106766523     0.116164430753
O     -2.865866041709     1.290984441484     1.114337236263
C     -2.909277610120     1.096602453036    -1.245131624150
H     -3.733863746452     0.573074688178    -1.758359359854
H     -3.131621941779     2.173631560184    -1.167497721891
H     -1.952447455192     0.931186200377    -1.770522610905
N      1.420543855509     1.064420398446    -1.971052261139
C      1.417298582745     1.459070079065    -3.278905293954
C      1.562912006450     0.513426785775    -4.278633787871
C      1.716012782673    -0.825478156969    -3.968317138122
C      1.723449388170    -1.195701108137    -2.646415801435
C      1.573227871258    -0.194293538199    -1.665546835405
H      1.293135841067     2.506885027179    -3.527228007825
H      1.555538461412     0.828257967296    -5.309342718630
H      1.829599363191    -1.568179255459    -4.753665368224
H      1.841063980253    -2.213557713581    -2.333772657028
O      1.575661492258    -0.536713101193    -0.386200712156
H      0.646532225758    -1.554051579536     0.115838653912

