# STO-3G

title

0 1
C      0.153188015092     3.135673757771     0.288942458628
C      1.426070969762     3.777085794418     0.447818555871
C      1.938539036605     4.622224920794    -0.576904831660
C      1.206289832236     4.830715489158    -1.747919590797
C     -0.047823349281     4.186027191938    -1.923552205086
C     -0.559503782777     3.345364383334    -0.933234614409
H     -3.828664462666     0.059487905397     0.644446509665
H      1.933749654193     3.755866745204     1.409378908507
H      2.894965539895     5.116476017873    -0.425668918450
H      1.589244880658     5.491124569225    -2.522240079457
H     -0.612141230875     4.343487059191    -2.839709584764
H     -1.501675917081     2.825561069643    -1.079775550562
C     -0.452594426695     2.311506304885     1.438168852681
H     -0.637108454660     2.929226104252     2.324546674746
H     -1.401178635750     1.896600028722     1.096988119048
C      0.544432243761     1.153680937734     1.673915313747
H      0.120531166299     0.173359639158     1.501219094310
C      1.424729507731     1.113841233919     2.859608958446
O      1.805414195652     2.194306920711     3.382355274721
O      2.057016380028    -0.100328589039     3.171239476384
C      2.921635959277    -0.081854171321     4.315585106559
H      3.344789731098    -1.097556415031     4.472240743814
H      3.767039789708     0.626990595052     4.163961189199
H      2.357024095464     0.203486633551     5.232326401537
Pd     1.583278915292     1.419411721774    -0.085202915021
C     -1.295145643155    -1.014449221769    -0.138952484726
O     -1.371194361952     0.091005955769    -0.725092771126
O     -0.242152425594    -1.845989334918    -0.177974161096
C     -2.416681163909    -1.522793591684     0.798641441654
H     -1.934081389991    -2.017329414689     1.646190558806
C     -3.347577097915    -2.501214081208     0.116496003126
H     -4.112196541190    -2.848509944001     0.841848625896
H     -3.860210317379    -1.996596331008    -0.728084622588
H     -2.777782470396    -3.375604691912    -0.259928113501
N     -3.209419931105    -0.404193548174     1.298061420838
C     -2.873131029628     0.229102689357     2.457636571842
O     -1.891402795549    -0.066366882896     3.177743857254
C     -3.769306944224     1.334780584944     2.857219653753
H     -4.782343125839     0.915821355255     2.979271508717
H     -3.405805647165     1.755972115678     3.810631340265
H     -3.758577197200     2.100516747453     2.062745003310
N      2.439273340748     1.052981485152    -2.122094585519
C      2.864408118382     1.552763223395    -3.319908505321
C      3.139223971878     0.686163367131    -4.363682546782
C      2.983976477942    -0.678973528768    -4.207862449056
C      2.552111566147    -1.156438995644    -2.995131218933
C      2.288337323425    -0.232250046745    -1.963251586994
H      2.984028452607     2.622458779285    -3.447574782808
H      3.473795654988     1.085032378929    -5.307102021394
H      3.198213936466    -1.359029456392    -5.028052436286
H      2.411107218363    -2.200358358237    -2.803537556326
O      1.854981686031    -0.675127715525    -0.794734307419
H      0.648528117370    -1.425044947380    -0.548326999111

