# STO-3G

title

0 1
C      0.166091047354     3.586414830273     0.521998087062
C      1.546552068100     3.969500124981     0.481482061341
C      2.031994402627     4.807708277564    -0.559587018888
C      1.165253935630     5.261090187872    -1.557867684022
C     -0.203110827890     4.883092207672    -1.534495007853
C     -0.692825837904     4.058006395629    -0.518502709624
H     -2.509451925876    -0.791190244054     0.017062455387
H      2.195016522733     3.746076521407     1.326949910183
H      3.078005335550     5.102710389933    -0.557207247016
H      1.532193089126     5.914467941251    -2.345366984875
H     -0.876619452943     5.246183513049    -2.306900891914
H     -1.745979648847     3.789056950312    -0.493167927024
C     -0.362602948128     2.777504567676     1.717309254381
H     -0.108072002221     3.272472565381     2.660123239962
H     -1.449551274086     2.689481077705     1.679284387738
C      0.286484882907     1.384877248996     1.567417304164
H     -0.426760790048     0.611478517956     1.306034509377
C      1.271441864776     0.901349668005     2.552481370863
O      2.255088003729     1.632945693403     2.836856594555
O      1.215574663754    -0.440934285525     2.947591368453
C      2.305283806389    -0.915431804312     3.748529274206
H      2.142591562824    -1.990848591924     3.980928451736
H      3.268853686375    -0.827139464810     3.197601811903
H      2.367939127731    -0.353712908973     4.707634158854
Pd     1.231586973994     1.693690150547    -0.230561277997
C     -0.551778270757    -2.129184927524     0.983085159418
O      0.325163217525    -2.880967677424     1.434433105555
O     -0.511413074230    -1.526123517852    -0.238589823777
C     -1.842275319261    -1.749587404941     1.753553559790
H     -1.545868495829    -1.354104362900     2.732245049304
C     -2.751483243159    -2.938877329818     1.969880782767
H     -3.628886544695    -2.627605871558     2.573752565745
H     -3.106877511504    -3.312519788840     0.988124470550
H     -2.208479590341    -3.745596201962     2.504844015189
N     -2.594649109269    -0.727064077951     1.027075802236
C     -3.063788374653     0.404357443003     1.606856044582
O     -2.910689753909     0.730794976444     2.809608662702
C     -3.812151571098     1.300073827811     0.697806595985
H     -4.671638445976     0.730295692453     0.305002913455
H     -4.161747746833     2.175306583765     1.272595522906
H     -3.142139133343     1.605296271962    -0.123349889508
N      2.106380350035     1.347627410675    -2.286177155915
C      2.586518595606     1.819574965762    -3.474907013195
C      2.962785064604     0.926961265260    -4.463790366231
C      2.861052552018    -0.437415611396    -4.260784968178
C      2.377591889562    -0.886988463654    -3.057106817827
C      2.010272635515     0.063083492127    -2.083435654972
H      2.666664389367     2.887919103766    -3.639718754876
H      3.340022243936     1.303709721554    -5.400374557590
H      3.158924163399    -1.138213032666    -5.036313447260
H      2.279718673141    -1.928763409889    -2.826499128346
O      1.544322943571    -0.350375608569    -0.917466756921
H      0.421115876984    -1.244568818202    -0.596587660742

