# STO-3G

title

0 1
C     -1.906660678424    -0.221704890765    -1.740826683762
C     -3.096909207352     0.532454672482    -1.738052300144
C     -3.606600835602     1.049922770698    -2.945424995973
C     -2.926448602505     0.809047577658    -4.155989709384
C     -1.742076193824     0.044938008496    -4.158683374025
C     -1.231647776320    -0.472627776934    -2.951662485490
H     -1.505648469084    -0.600040831924    -0.803920597651
H     -3.626220730000     0.710345038435    -0.802932185691
H     -4.527246142158     1.629786334236    -2.943262294373
H     -3.319861783626     1.206562411214    -5.089127685121
H     -1.222689872670    -0.149258553981    -5.094567264219
H     -0.325171063846    -1.073904077625    -2.950943873496
C      1.228729318272     0.656393553663    -0.225076806847
H      1.195066576768     0.100467268304    -1.166652753545
H      2.127117348536    -1.569282021294     0.843491503816
C      2.057873819447     1.694037437675     0.022717064404
H      2.031560041910     2.197405924573     0.983755650162
C      3.043753671651     2.224653430429    -0.935577326822
O      3.770308581199     3.191213374109    -0.582275008854
O      3.125939870377     1.683734291053    -2.231908319784
C      4.113756193637     2.264745622072    -3.094185891746
H      4.085257854090     1.754367393760    -4.080973470424
H      3.910233894978     3.347510782688    -3.256001253838
H      5.134476562346     2.138721478700    -2.667205295776
Pd     0.050405846003    -0.115817101260     1.175129955348
C     -0.183882389310    -2.245258279458     3.278165368773
O     -0.854969484979    -1.193498436631     2.800760371949
O     -0.521544617831    -2.969235925231     4.230942112202
C      1.167869876265    -2.533792064990     2.523576391840
H      1.281645926337    -3.623527004297     2.469788306476
C      2.340044206906    -1.976568680568     3.305492583455
H      3.293307199523    -2.277750653650     2.822331770230
H      2.285709285310    -0.868777118607     3.332451492101
H      2.332187197642    -2.370316957048     4.344064165509
N      1.214471857197    -1.924650929482     1.145923350890
C      0.609507563574    -2.549485110675     0.017587273973
O      1.081290621733    -2.420745671859    -1.122058200140
C     -0.637840518142    -3.313710841496     0.226814766089
H     -0.422294978902    -4.195954128681     0.851695661416
H     -1.392323709815    -2.663030205373     0.697894182993
H     -1.010174310942    -3.651856876659    -0.759110804676
N     -1.190760191270     1.554841257767     1.263513091967
C     -1.220675237011     2.500467107336     0.266308944859
C     -2.026909089788     3.612598700256     0.385399695936
C     -2.810144458805     3.796437090269     1.499542841009
C     -2.785806677214     2.835324144143     2.472127816171
C     -1.963171746087     1.698875159802     2.316923348835
H     -0.632795908413     2.378983805562    -0.633192820771
H     -2.038778640324     4.342723923848    -0.407880734051
H     -3.442737612043     4.674770765625     1.598031811417
H     -3.388352154841     2.910245837428     3.356006480998
O     -2.073509933212     0.842259057401     3.300844264471
H     -1.603581716284    -0.097376408585     3.222106777890

