# STO-3G

title

0 1
C      2.653464159504    -2.021818075586     0.975099047025
C      2.138753843949    -3.245933221818     1.452698290898
C      2.824366085695    -3.951663275254     2.461466272412
C      4.025896095362    -3.440350471482     2.991617049092
C      4.549058865614    -2.226911705381     2.502220909769
C      3.865069767078    -1.520990526799     1.492624486261
H      2.124598670253    -1.464960645368     0.204704799942
H      1.213768159966    -3.641024973738     1.041073193161
H      2.428226290110    -4.897407981329     2.825414475738
H      4.555882432701    -3.988127625127     3.767848757787
H      5.486276382735    -1.838799812847     2.895225129632
H      4.285722232882    -0.599431384939     1.097801210737
C      0.393480462117     2.251615547105     2.069335393995
H      0.048145861613     3.122462081503     1.519409077731
H     -0.286138786626     1.859663027307     2.817612500692
C      1.711636628940     1.804224485261     1.967074787430
H      2.078217187122     1.013802714346     2.604572011524
C      2.759792548652     2.526243348554     1.217958790950
O      2.576370028159     3.730829948152     0.895921238450
O      4.032525087782     1.937089203335     1.125034123733
C      4.990346797019     2.657488753688     0.336578890549
H      5.947220419815     2.093805924796     0.309441488971
H      4.626948157419     2.778358080661    -0.710334652227
H      5.190116796304     3.661927750316     0.774660389392
Pd     0.327646624724     0.590263316788     0.573671956134
C      0.774296614918     1.344257149829    -2.167246759947
O      1.181998700322     1.632007823088    -0.913206976788
O      1.267399851864     1.848557565885    -3.191184518536
C     -0.398974266176     0.316209170642    -2.238309721002
H     -0.290782046751    -0.235655122407    -3.180959098669
C     -1.742098256380     1.015901382022    -2.219545735298
H     -2.559931993400     0.276353574551    -2.333090087637
H     -1.880903957965     1.537032427123    -1.247543252568
H     -1.803910040959     1.754050097850    -3.046357430831
N     -0.346268691850    -0.540233039652    -1.038163626522
C     -0.720216099102    -1.775552710596    -0.936679824978
O     -0.756923011151    -2.415238858188     0.225891589864
C     -1.082571365343    -2.581226639720    -2.114343130109
H     -1.949753160004    -2.111659475585    -2.608153642876
H     -0.209074606941    -2.625672482395    -2.786568209490
H     -1.353017501645    -3.603374425749    -1.789671485525
N     -0.554831558985    -0.542157958084     2.102750219936
C      0.117230192784    -1.003406231532     3.209500614978
C     -0.565139526606    -1.252032525615     4.378212730018
C     -1.922956245004    -1.044358315108     4.472114983792
C     -2.589986485363    -0.538641089124     3.390105190816
C     -1.892156150304    -0.237372550617     2.196799086052
H      1.179291493473    -1.202722901252     3.158730251735
H     -0.024961888034    -1.635404557936     5.229247855198
H     -2.452618711869    -1.258304046292     5.396900557546
H     -3.638702176565    -0.318334973665     3.419741024431
O     -2.527094537923     0.308119937769     1.259808219320
H     -0.677629979346    -1.755737926774     1.021332098821

