# STO-3G

title

0 1
C     -3.355544994570    -1.384124813422    -1.561450825885
C     -4.763424254321    -1.430388540719    -1.602503788472
C     -5.422464679419    -2.638768528941    -1.903869561958
C     -4.671508417021    -3.802598585621    -2.163553019521
C     -3.263483987652    -3.755870488199    -2.124024990401
C     -2.603285781298    -2.547771366356    -1.824072009123
H     -2.850010176743    -0.453502176519    -1.324848302809
H     -5.346829148849    -0.531542035862    -1.408552686761
H     -6.509445944849    -2.672791327987    -1.936985892132
H     -5.179442443124    -4.736384291158    -2.395356306263
H     -2.682795194768    -4.653365223247    -2.324381878640
H     -1.517503572272    -2.517230038704    -1.798478393047
C     -3.287889611198     1.677039747847     0.195660413445
H     -3.846444108220     0.756748747069     0.343614235497
H     -3.396091450143     2.175678107245    -0.757544597328
C     -2.644021284029     2.324616471266     1.238264224553
H     -2.194995596684     3.285848276451     1.041847964312
C     -2.736572199156     1.885863230582     2.643990845412
O     -3.316192803686     0.801838650122     2.928538036785
O     -2.173384514638     2.689824936212     3.655908277861
C     -2.436014753590     2.271856584624     5.003378252729
H     -1.963720466798     2.985630891674     5.712218838807
H     -3.531809575089     2.263035772599     5.205364650601
H     -2.021132538103     1.256269319351     5.193598361216
Pd    -1.083921515561     1.016898908874    -0.084807136987
C      0.376468622115    -1.463117586733    -0.011877216156
O      0.210608450028    -0.408800106438    -0.823531169333
O      0.892438631310    -2.547855848986    -0.344358008830
C     -0.132381490099    -1.247443493155     1.471362592097
H      0.603381103858    -1.719619977334     2.135658521245
C     -1.482968796835    -1.879884326889     1.708939837148
H     -1.773697109233    -1.749296331465     2.771632333285
H     -2.251549957124    -1.388974881035     1.079272302365
H     -1.449398218492    -2.963028556602     1.468339863347
N     -0.296451149508     0.200042309717     1.654835393375
C      0.323206863601     0.970427933507     2.469749949949
O      0.230811553146     2.308696403975     2.256156224171
C      1.149440447447     0.459661361251     3.582035503380
H      0.515507369467    -0.196516162495     4.205271762972
H      1.994497421829    -0.105576237945     3.150425148083
H      1.544895871197     1.290964436051     4.190848931338
N     -1.315048372279     1.793419550057    -1.930788946597
C     -1.065147755709     1.034541749114    -3.042262033673
C     -0.998253141246     1.632859563815    -4.281985460993
C     -1.163837783340     2.991423816600    -4.420446819708
C     -1.399324087621     3.744282981717    -3.302020880357
C     -1.463458101748     3.131634725454    -2.023735109178
H     -0.955688359682    -0.039433815459    -2.962875658281
H     -0.811891441845     1.022377942203    -5.149612354368
H     -1.108154955700     3.458430219054    -5.399846251609
H     -1.529191036473     4.805828393534    -3.347487941828
O     -1.676772383001     3.891084701776    -1.029417530445
H      0.411155471059     2.902788313639     3.008546970733

