# STO-3G

title

0 1
C     -0.421343012900     1.881549178083    -3.184419367514
C     -1.319492873267     2.816646954917    -3.735123747684
C     -0.999496244653     3.469551765280    -4.941906646328
C      0.218040826157     3.188319035910    -5.595087129247
C      1.117671651384     2.255968007683    -5.040209552312
C      0.798623555443     1.601620949626    -3.833106317536
H     -0.688487041799     1.386528011666    -2.255836176144
H     -2.248077167885     3.026964497439    -3.210805476020
H     -1.691614346556     4.192297732500    -5.368843834889
H      0.464493244839     3.693037554286    -6.526893813595
H      2.058286142458     2.041996406069    -5.542977876135
H      1.494438880313     0.882884809284    -3.403715332560
C      0.789063988730     2.080206388550     0.047551989847
H      0.087048307583     2.903717373944     0.154653395291
H      1.207755049612     1.942285271574    -0.943107428330
C      1.289907142827     1.370509601503     1.140190034202
H      2.037241707982     0.612563854605     0.962132056134
C      1.087202821098     1.744832247162     2.549478368907
O      0.441208154815     2.785977776263     2.840884473392
O      1.548774501979     0.871766841396     3.548958392936
C      1.328337027543     1.295022874194     4.902069322299
H      1.738822608021     0.531967928015     5.598288496057
H      1.845201094720     2.261105714627     5.102944711368
H      0.240374842244     1.408852414255     5.110662089105
Pd    -0.384205576142     0.170162261048     0.033105587670
C      1.009149872549    -2.072958445922    -1.021596175625
O      1.231993792963    -0.784447112582    -0.668574537566
O      1.878018147589    -2.960712641233    -0.976072894158
C     -0.414057923693    -2.335418657415    -1.595234564334
H     -0.695372190874    -3.366587109900    -1.340537425334
C     -0.358353807687    -2.185036656665    -3.108294053867
H     -1.325795101671    -2.429629770126    -3.582353673184
H     -0.103598808453    -1.136877831323    -3.367361281977
H      0.415354583887    -2.859935262980    -3.532174377507
N     -1.365836427804    -1.322431017571    -1.065974005707
C     -2.664267102226    -1.344590668619    -1.256659288784
O     -3.439276303807    -0.296425947658    -1.205996314709
C     -3.378830731654    -2.624987717562    -1.452307645114
H     -3.139749970703    -3.282206537525    -0.598947322754
H     -4.467142770353    -2.429241602045    -1.467753364966
H     -3.085993525294    -3.088927324960    -2.404890825084
N     -1.918463103358     1.086355159912     1.056022048374
C     -2.001789505658     0.942194073254     2.414289361647
C     -2.840316878987     1.756503163034     3.146168923435
C     -3.594832756379     2.727467643044     2.524320629935
C     -3.534721463458     2.828220944872     1.159575540009
C     -2.689939671900     1.960676403901     0.431780502567
H     -1.392344581308     0.200019428997     2.916483891975
H     -2.878948490657     1.651999640728     4.217271541043
H     -4.241889520459     3.382510408347     3.101359356292
H     -4.129357671951     3.530084439559     0.611333869206
O     -2.754677646801     2.013899257827    -0.859761106998
H     -3.028858285879     0.719677665927    -1.173740456456

