# STO-3G

title

0 1
C      1.322773387588    -3.601537102453     1.101924707398
C      0.434010674013    -4.576504340059     0.603491378605
C      0.331561862556    -5.827773878160     1.245081820662
C      1.119385022757    -6.106436721288     2.380112749637
C      2.014968870150    -5.134496045188     2.871656918614
C      2.117642831299    -3.883495783541     2.231616519473
H      1.403670678909    -2.637466461670     0.608114842160
H     -0.162792788608    -4.364490606643    -0.278998076411
H     -0.352625590364    -6.579281962361     0.857541891156
H      1.042039518510    -7.073462328501     2.872846522205
H      2.629009858977    -5.349926745938     3.743452416216
H      2.801474194654    -3.125663146263     2.605178317698
C      0.672550903324     1.786771274247     1.778461680355
H      1.575627844496     2.146636879895     1.299141467738
H      0.788330253459     1.354390378872     2.764897412519
C     -0.597890547061     2.047634048797     1.266280939203
H     -1.459006932923     1.783114437318     1.862061497071
C     -0.886012993874     2.851343319106     0.066227958850
O      0.053577656694     3.209762405628    -0.691074322936
O     -2.229769598448     3.030929042595    -0.302652007862
C     -2.453708405171     3.731160374899    -1.534943456497
H     -3.546776218883     3.818336535366    -1.717004495776
H     -2.025800777403     4.758618519305    -1.490967405611
H     -2.003182648521     3.179783277148    -2.391745906949
Pd     0.025465414907     0.016953810367     0.453314745238
C     -1.764988194497    -2.087318552206    -0.330332986294
O     -0.604870521858    -1.520499780039    -0.731424616364
O     -2.401805671333    -2.921217979461    -0.999081003635
C     -2.283765564946    -1.613168732396     1.087414776443
H     -2.674485496616    -2.499855143457     1.602281631428
C     -3.387811835262    -0.589192249454     0.965681220976
H     -3.699839178504    -0.255348273626     1.976598887398
H     -3.029183780964     0.288439203514     0.389956601117
H     -4.260908349765    -1.033236942685     0.443173342882
N     -1.153744792514    -0.966996701128     1.764930277420
C     -0.469840652103    -1.386942586169     2.802828832513
O      0.745468717432    -0.968835608126     3.100165892958
C     -1.057873191857    -2.360042170950     3.737574139919
H     -2.039651907745    -1.981466228217     4.068496849711
H     -1.143990808538    -3.329096167152     3.215032998147
H     -0.385136385170    -2.481508200733     4.607009203179
N      1.784824058161     0.344363326782    -0.533885149299
C      2.041019013034     0.732670072264    -1.816771569979
C      3.339373532045     0.724179639803    -2.284637461007
C      4.378264292073     0.323898498331    -1.471243002681
C      4.096815179814    -0.068897979093    -0.187630238234
C      2.759644728892    -0.061007834685     0.269954971398
H      1.228097645950     1.054280407734    -2.457387465783
H      3.536443267003     1.035082066651    -3.296882407479
H      5.399772046587     0.316193087284    -1.841558979571
H      4.859219995188    -0.402118986011     0.486302384216
O      2.567116600935    -0.468535494824     1.484869345847
H      1.484006834532    -0.708892143511     2.330441001714

