# STO-3G

title

0 1
C      2.203962259408    -2.803752806249     1.984836548081
C      1.521241619324    -3.768368110702     1.205091334179
C      1.248926507997    -5.044012469997     1.736399394600
C      1.661537712863    -5.367809241130     3.046104360321
C      2.351750554633    -4.417189759489     3.824081906218
C      2.624711976868    -3.140067539513     3.292557008612
H      2.470177684936    -1.833584526898     1.563044265250
H      1.216417940374    -3.524967952566     0.190392678962
H      0.730091224644    -5.782623030866     1.130096432562
H      1.453936488608    -6.354957256145     3.452715048923
H      2.678893568593    -4.669301008910     4.829901963863
H      3.178475809814    -2.411545730738     3.880828065453
C      0.773094030193     0.596037952895     2.307026949820
H      1.831454300805     0.725533448214     2.106293000708
H      0.503631028479     0.002739687649     3.173319243642
C     -0.219299349474     1.289171405054     1.613089045286
H     -1.250354728555     1.178405089940     1.919058839712
C      0.029152511174     2.382155826112     0.657162399538
O      1.149166589771     2.954987309707     0.619719044244
O     -1.035237087447     2.799203262383    -0.161476718343
C     -0.719468319329     3.825022411779    -1.113904292922
H     -1.624090319304     4.067554602243    -1.711810979465
H     -0.383873960779     4.753973492856    -0.598622648004
H      0.080110658718     3.484380195098    -1.811677117021
Pd     0.035915534152    -0.684932005415     0.517171989095
C     -1.879979993330    -2.327043457802    -0.850557817466
O     -0.595069052838    -1.949073761772    -0.969653078572
O     -2.508968764126    -3.001286053199    -1.685793977975
C     -2.590532135853    -1.817710669285     0.464304834769
H     -3.347270926138    -2.565040509206     0.730861678917
C     -3.268798005541    -0.483786447433     0.244951564253
H     -3.715786056713    -0.127374418403     1.195549151581
H     -2.532994857576     0.265379475973    -0.113330582242
H     -4.071532729034    -0.588664483633    -0.515005070073
N     -1.541955314735    -1.619953129127     1.486826128252
C     -1.516879724897    -2.118580910372     2.678028592626
O     -0.429849935657    -2.105521653862     3.464397562014
C     -2.710645848142    -2.711924036934     3.301826259906
H     -3.533115879801    -1.977374543116     3.255872245770
H     -2.964144559269    -3.640870115416     2.763468920066
H     -2.491492158809    -2.955917044188     4.358788551472
N      1.411963821367     0.077990139957    -0.728241733723
C      1.005929708865     0.326303300161    -2.010432718205
C      1.912349422753     0.772108624793    -2.946949373426
C      3.236636674605     0.947466309952    -2.615426638050
C      3.639925686944     0.662226354726    -1.339304689473
C      2.705073451859     0.205734103171    -0.375178594563
H     -0.037165976046     0.213262784179    -2.280844615162
H      1.578410587362     0.976131300502    -3.950050272378
H      3.951500327876     1.295702499141    -3.355720337479
H      4.658714490490     0.765073452127    -1.027489261796
O      3.161271877584    -0.080391314601     0.776962771562
H      0.440386791724    -2.123422590243     2.977732541553

