# STO-3G

title

0 1
C      2.546011831804     2.380768938205    -0.909845901954
C      3.495199153675     2.103013470080    -1.912253474977
C      4.792653816977     2.644977881462    -1.818938537973
C      5.138082890098     3.463903048779    -0.724390543439
C      4.183820660977     3.747296142354     0.273539150039
C      2.884586944316     3.208933894283     0.179921965878
H      1.551211421159     1.954233843683    -0.997379239629
H      3.209593900549     1.475427172252    -2.752980597494
H      5.527952618287     2.430393339744    -2.591681199782
H      6.141203193856     3.879059687015    -0.651102279688
H      4.446451396988     4.386131448445     1.114223486109
H      2.137480456625     3.443972788671     0.936314972271
C     -2.133581861387     3.436562546467    -0.722007651989
H     -2.106808476144     3.906518074631     0.255245334025
H     -3.079759592251     3.013192753414    -1.038010684265
C     -1.078404601840     3.586892313027    -1.621289371156
H     -1.160534062445     3.169820344266    -2.615235217671
C      0.055056684099     4.515959963225    -1.454754687927
O      0.148499335520     5.217782834254    -0.413399377628
O      0.886144047898     4.742608578113    -2.564964634961
C      1.931522483710     5.707904301365    -2.383734360699
H      2.527107954375     5.783932930739    -3.318211817693
H      1.508784259761     6.711446854271    -2.152602660059
H      2.619381535413     5.400005493718    -1.565698130841
Pd    -0.857708467767     1.615723092106    -0.384429516612
C     -0.466791700208     1.660760242768     2.422228936157
O     -0.527024344552     2.513684423441     1.373899393179
O     -0.805649019958     1.959843813442     3.580877058872
C      0.159150034096     0.274876371708     2.083103973558
H     -0.330211453153    -0.477037465238     2.717499690243
C      1.644295662647     0.320818688995     2.409666430716
H      2.124800212075    -0.666180346453     2.294849149692
H      2.151803863179     1.032166347493     1.728035517764
H      1.796291209632     0.656829527681     3.457465896055
N      0.007312530666    -0.002566391024     0.629322485033
C      0.307898428548    -1.135137733873     0.042084051008
O      0.568962693467    -1.264492315264    -1.231577814940
C      0.275310746160    -2.412389609755     0.787316824728
H      0.409843000392    -3.248158873923     0.075431651132
H      1.088725784576    -2.442264255549     1.523714357701
H     -0.710597758825    -2.506436216620     1.274818291979
N     -1.529165517316     0.720464332515    -2.129219979871
C     -2.871434786144     0.560221661223    -2.340943327232
C     -3.342335951801     0.289849474277    -3.608519378526
C     -2.471545476474     0.150757038544    -4.668105076163
C     -1.127557705302     0.258335583023    -4.427590652914
C     -0.669347421907     0.519702352497    -3.116788353788
H     -3.566424543371     0.674418118476    -1.517534377926
H     -4.403024612028     0.186363511669    -3.770010016857
H     -2.841345685227    -0.062536024178    -5.667618557157
H     -0.395029534449     0.118064688456    -5.197008135638
O      0.605491072251     0.510974870684    -2.916329872926
H      0.698357318651    -0.401077901028    -1.871024646839

