# STO-3G

title

0 1
C      1.827425377254     2.598056588028     3.133259749957
C      1.429211225427     2.445787023514     4.476388916556
C      1.043594215579     3.570413407112     5.233452382385
C      1.058907868526     4.853169768686     4.649847765610
C      1.465581692942     5.010935852175     3.309608344078
C      1.849617254740     3.884404329646     2.555846968838
H      2.130008517739     1.743077335357     2.534002891716
H      1.427149478959     1.457779720082     4.932303608212
H      0.738981165602     3.449277117603     6.270637680028
H      0.764414757867     5.721373805490     5.235123496768
H      1.489082076947     6.000954020389     2.859593768981
H      2.178109196747     4.006114228398     1.524354045009
C     -0.834537097980     0.697929001739     1.875778043475
H     -1.640367351156    -0.008800556224     2.042235462403
H      0.067408409175     0.547124354452     2.455204441711
C     -0.988702948965     1.857203739189     1.130392084251
H     -0.191597000606     2.582304062913     1.133169557727
C     -2.227427997722     2.265953701429     0.451664068153
O     -3.130334551826     1.408169126277     0.257946703614
O     -2.263247430141     3.516854939993    -0.187159215680
C     -3.453868526880     3.807268959210    -0.932919557135
H     -3.370098201433     4.821412611710    -1.379925633277
H     -3.592145370420     3.074238138616    -1.760198779537
H     -4.349592040416     3.792329037983    -0.271249624901
Pd    -0.295597031280     0.142987666174    -0.318578530319
C     -0.837866090071    -2.050040969214    -2.069590539970
O     -0.204193696217    -0.851539449186    -2.080445954743
O     -1.076598085273    -2.719574283683    -3.089358407851
C     -1.253722009354    -2.564986464292    -0.629615413109
H     -1.070153625749    -3.647217756677    -0.604565075088
C     -2.712388768903    -2.305903481988    -0.336965952529
H     -2.959153755820    -2.674072018976     0.679889342726
H     -2.920537341609    -1.216279184047    -0.381172705046
H     -3.349367948435    -2.829707743382    -1.079936466284
N     -0.469785852043    -1.782970188341     0.330019066588
C      0.539889633547    -2.161199289284     1.069673535689
O      1.441661066061    -1.335851249429     1.569747578156
C      0.694753616639    -3.576957232701     1.445104743585
H      1.524426412738    -3.669213619685     2.170178977614
H     -0.247831298010    -3.914464535378     1.908961372244
H      0.932577193671    -4.162322383651     0.540142814179
N      0.854083240150     1.675322538840    -1.018481026889
C      0.656195490981     2.521708027924    -2.070463307337
C      1.681724356419     3.348991889447    -2.479924995506
C      2.908316619481     3.313550253626    -1.850964101624
C      3.090903316984     2.437105090565    -0.811944772155
C      2.031523271596     1.589081889513    -0.414700412504
H     -0.309873975424     2.559637296831    -2.560395914421
H      1.518565513373     4.022644925182    -3.304534146637
H      3.716738310638     3.962361067439    -2.176969328064
H      4.026051373186     2.350296174635    -0.296844844138
O      2.284533332769     0.769037136624     0.553685345238
H      1.713725518973    -0.399629281147     1.077505563822

