# STO-3G

title

0 1
C     -0.614617301807     0.716706798636    -2.552814024359
C     -0.558824255998    -0.341242937971    -3.482334251410
C     -1.646479676541    -0.581480856202    -4.345071115828
C     -2.789126802954     0.241267841858    -4.286129782770
C     -2.838089612979     1.312268281478    -3.371788463099
C     -1.749950387104     1.551538979639    -2.509827672437
H      0.224100636186     0.893572026390    -1.885957549579
H      0.331645647377    -0.963290849126    -3.543132245565
H     -1.600289022091    -1.396365095199    -5.064096478985
H     -3.627271218821     0.058056827110    -4.954849891939
H     -3.711072499827     1.960547679620    -3.336637128415
H     -1.790062571198     2.388330014676    -1.813958396544
C      0.755384793099     2.638118158306     0.045050403956
H      1.202153155430     2.586471643866    -0.942245098429
H     -0.260028613387     3.016105597310     0.113277088631
C      1.515701152064     2.502242090340     1.204605532015
H      1.036587608847     2.675396815418     2.159283047652
C      2.973702035651     2.287646220301     1.219333526591
O      3.540709858463     2.046377422297     2.318096205746
O      3.712810875658     2.446015975067     0.032404958123
C      5.079984310665     2.018357441732     0.090595972136
H      5.556671823022     2.176356986638    -0.900134330075
H      5.647718118936     2.602029230267     0.850059306579
H      5.139319343413     0.932074656621     0.331883942093
Pd     0.433706979781     0.500457226421     0.750074044525
C      2.346400010322    -1.455999167048    -0.135677133372
O      2.172067334392    -0.124545978287    -0.034010328875
O      3.352251285384    -1.990585701740    -0.635928368472
C      1.159607353411    -2.330986059881     0.405437767607
H      1.620635097805    -3.174357088491     0.936400908317
C      0.309534307810    -2.872432054579    -0.722645376261
H     -0.466640618665    -3.553010526580    -0.317728860972
H     -0.193315574779    -2.034852190457    -1.245132059894
H      0.940184466911    -3.432797627547    -1.444789514318
N      0.276676444615    -1.504665496824     1.250397178220
C     -0.282153791371    -1.839726316257     2.374896865487
O     -1.048613868839    -1.016057647412     3.077942919030
C     -0.111642652771    -3.180199427618     2.959766650279
H     -0.459058033637    -3.932183212082     2.231704945500
H      0.954293142550    -3.317283960934     3.209849144024
H     -0.713190131655    -3.255781247881     3.885589136488
N     -1.494628542865     0.976554612928     1.335474713570
C     -2.436642385852     0.455845416969     0.483849179096
C     -3.689135471779     1.019225555103     0.409466407992
C     -4.027606900603     2.105148048618     1.183787891211
C     -3.082816230557     2.641353410383     2.015041799813
C     -1.780280350010     2.088942567843     2.076090602299
H     -2.197263352581    -0.414391165255    -0.117075554771
H     -4.417376265052     0.593185596017    -0.261962475447
H     -5.023325071514     2.537250727818     1.127068021368
H     -3.283449870641     3.499938096529     2.625205538585
O     -0.941151090272     2.660306485103     2.817850188840
H     -1.209017237200    -0.120598378998     2.602975408089

