# STO-3G

title

0 1
C      2.459206136233    -0.443833628944    -1.392265034349
C      2.606434953647    -1.340666011852    -2.468875507237
C      3.792145981052    -1.329586007982    -3.231106671022
C      4.824148238304    -0.422835663547    -2.915790971075
C      4.671765739698     0.474341279034    -1.838784270643
C      3.487770925407     0.464847759628    -1.074849545734
H      1.549672848917    -0.450042356544    -0.800564433693
H      1.804340675652    -2.034606116967    -2.710099850045
H      3.909960868442    -2.021247936112    -4.062272317400
H      5.739534700708    -0.415432518865    -3.503794781315
H      5.469238867971     1.173193853453    -1.595544296020
H      3.356624971698     1.151027238982    -0.241562679861
C     -0.396037970953     1.273401921540    -1.893456210704
H      0.193006660408     2.055624598017    -1.421064387192
H      0.161179780723     0.533519550299    -2.457249379640
C     -1.788055132747     1.280603570128    -1.916306282811
H     -2.306164669866     0.510213280217    -2.468902896259
C     -2.613147101796     2.407086383616    -1.453707022138
O     -3.857237667738     2.240841080348    -1.350918775059
O     -1.998841734553     3.605239998379    -1.048242013618
C     -2.880227853974     4.653928599701    -0.624352216954
H     -2.278376110733     5.539088067559    -0.325835164889
H     -3.560632701383     4.956900659979    -1.451991448265
H     -3.484130499255     4.334878892296     0.254202265685
Pd    -1.036505092911    -0.133153238142    -0.247121672408
C     -1.328177924865    -2.824271544483    -1.142970745003
O     -1.083858690810    -1.589805530319    -1.641761914852
O     -1.520221186987    -3.835225958135    -1.840020908425
C     -1.357040127321    -2.885747514898     0.430008288417
H     -0.973351039538    -3.873661236094     0.713854895540
C     -2.760014468096    -2.737565134607     0.972604311505
H     -2.737495523876    -2.794502617564     2.080488513015
H     -3.178443498742    -1.754730297408     0.674394585650
H     -3.409261265923    -3.547888325248     0.579328439153
N     -0.570846060767    -1.744335851190     0.936342070017
C      0.510709093834    -1.781977038032     1.674079145408
O      1.316752388668    -0.777964348535     1.890192731566
C      0.906271387059    -3.035492272722     2.345266322397
H      0.058237787338    -3.387157575153     2.957155406535
H      1.192802358512    -3.770155990416     1.574298578860
H      1.777773898573    -2.842350427414     2.999391693313
N     -1.161563485486     1.325344835588     1.180469663974
C     -2.375086787094     1.711639870578     1.679767158620
C     -2.458006556831     2.803696103921     2.518592930115
C     -1.327155726972     3.514450932939     2.859818653682
C     -0.116906569828     3.091114515666     2.377021750544
C     -0.055730196831     1.951561800585     1.543551370917
H     -3.272130651568     1.173844477455     1.395243697429
H     -3.419712137370     3.107461116192     2.897873454598
H     -1.391444204602     4.380308734582     3.513217886247
H      0.802885000111     3.576870315122     2.632543895897
O      1.118527503039     1.535769291559     1.194904908973
H      1.223025226040     0.234220310298     1.453558269075

