# STO-3G

title

0 1
C     -0.969220759620    -2.349643160006     2.312206125582
C     -0.483088796616    -3.516554463010     2.941190525112
C     -0.985445115750    -4.780138357410     2.574166854136
C     -1.977320091776    -4.881850167364     1.575241404862
C     -2.469489775134    -3.718777061433     0.950446483989
C     -1.970029508803    -2.452667346896     1.321059607256
H     -0.617432541205    -1.366666166644     2.613710300387
H      0.265065041182    -3.436863048639     3.727922221531
H     -0.621322717229    -5.676462404189     3.072007365227
H     -2.375071806900    -5.856977632946     1.301909516851
H     -3.250921451700    -3.795190070688     0.197346225616
H     -2.363803435082    -1.547820561152     0.865125364240
C      2.365447454409    -1.488695114525     1.700813763508
H      2.029392242050    -1.257718600936     2.707118501257
H      2.546711332326    -2.528969123082     1.460573416628
C      2.839039495834    -0.472762218242     0.852856896059
H      3.268887116030    -0.705545679697    -0.110722169005
C      2.989262756438     0.932220330230     1.273609000582
O      3.082044104659     1.213164736212     2.498191235328
O      3.083437703698     1.925620566390     0.283399307921
C      3.138033190502     3.277019479783     0.763124856581
H      3.194262444171     3.974614082326    -0.099648209834
H      2.224944641153     3.526023519406     1.352707417282
H      4.038605595583     3.435746235100     1.398721874982
Pd     0.705195292291    -0.987949580983     0.306479273770
C     -0.236645942690     1.680462965320     0.713453090908
O      0.134025093759     0.577549414846     1.417763492917
O     -0.482501042836     2.768995713708     1.262220659240
C     -0.270393744911     1.457390671699    -0.833482046087
H      0.735665511984     1.681437214393    -1.224968915146
C     -1.274450721795     2.362253499168    -1.518196251361
H     -1.245254466665     2.206122821205    -2.616000424273
H     -2.293356239599     2.131535480848    -1.143830938283
H     -1.038997041581     3.425742898098    -1.304066664910
N     -0.693326423247     0.050533463713    -1.077987616980
C     -0.555969951032    -0.516752265153    -2.244818690703
O      0.222429033657    -0.097529485638    -3.259935710845
C     -1.350041780472    -1.724535068374    -2.506959231032
H     -0.666968098958    -2.546156649041    -2.777979900753
H     -1.930362727134    -1.986292322584    -1.605592058043
H     -2.033034769446    -1.504506894671    -3.345582327626
N      1.385319827451    -2.504729132714    -0.893806488051
C      1.074457605669    -3.816633577597    -0.664931184477
C      1.504969721651    -4.785460495575    -1.544398155861
C      2.256708744900    -4.451209896402    -2.649365604578
C      2.552152588743    -3.130950008499    -2.866538637501
C      2.094567513804    -2.144348148191    -1.961845787502
H      0.496015286101    -4.091196325800     0.206257985297
H      1.258443745374    -5.817700616524    -1.354675215437
H      2.603709343533    -5.217928934985    -3.337300930915
H      3.128769733401    -2.809714758771    -3.711262193479
O      2.376456738040    -0.917690501435    -2.239688265563
H      1.216641925112    -0.171081116488    -2.966086307310

