# STO-3G

title

0 1
C      3.512985791743     0.222498947596     2.024975038217
C      3.321392021864     0.175735654495     3.420183356304
C      4.422879864571    -0.053626113625     4.269472836686
C      5.708786359172    -0.237317869682     3.722050579815
C      5.895148749315    -0.193784108592     2.325087322861
C      4.796166786110     0.036238167529     1.473689002934
H      2.668230059228     0.403365347969     1.368092310376
H      2.324800996028     0.311035364510     3.833469229925
H      4.279762162086    -0.088221739244     5.347160429624
H      6.558720498445    -0.412895331316     4.378219914300
H      6.887944777617    -0.335963333283     1.903539888641
H      4.924026472597     0.069098664824     0.394272087650
C      1.617785793629    -2.285205590698     0.630793990839
H      2.256929345281    -2.497436476193    -0.222319643056
H      2.116822260345    -1.885583886921     1.507437651537
C      0.276876921695    -2.655434787455     0.679040972452
H     -0.274067710284    -2.474370377976     1.589813928489
C     -0.411143792123    -3.479859636872    -0.328144234023
O      0.214328098265    -3.899758505368    -1.337098945511
O     -1.798991927037    -3.662666543969    -0.206250233775
C     -2.414960113913    -4.477548886030    -1.213965743678
H     -3.504184613517    -4.558604114316    -1.007669983329
H     -2.283667189148    -4.027906638134    -2.224273326902
H     -1.984328532912    -5.504916425401    -1.209085355893
Pd     0.462310258356    -0.399089084907     0.146755379974
C     -0.886789725604     0.907896298596     2.294550769411
O     -0.111094939054    -0.178926959005     2.071711342923
O     -1.460997531820     1.148707386251     3.370309557506
C     -1.014043784289     1.864096552324     1.051831909020
H     -1.107843135426     2.883925138568     1.445544174479
C     -2.239658765487     1.551532016619     0.224165370819
H     -2.294942760512     2.251258278202    -0.635249726505
H     -2.179105197287     0.514492247224    -0.163801914545
H     -3.155720000079     1.660193035817     0.842068533512
N      0.162816054484     1.633857410459     0.192616325505
C      1.097923190098     2.494791601159    -0.126597859996
O      2.245812017729     2.198588687722    -0.669273491174
C      0.895215765970     3.935373180229     0.124462194202
H     -0.042174109338     4.247398095458    -0.366591997498
H      0.867011729179     4.100652337925     1.214449720591
H      1.742229540484     4.504680264189    -0.303546966527
N      0.896151346851    -0.654752403340    -1.837048605593
C     -0.043364985073    -1.149608819437    -2.699260300592
C      0.314398839510    -1.499902444649    -3.984257508466
C      1.618679284790    -1.370821936309    -4.409361958637
C      2.540880976458    -0.848310426995    -3.541595323941
C      2.141718003496    -0.472084166483    -2.239487772685
H     -1.066366596830    -1.278719284338    -2.365908640571
H     -0.428503733359    -1.907083510993    -4.649186153478
H      1.906641740386    -1.663668378914    -5.415396200132
H      3.564499545809    -0.697490068488    -3.818312116791
O      3.040185258273     0.076634855822    -1.488562562790
H      2.597941315591     1.171660728663    -0.934138169791

