# STO-3G

title

0 1
C     -2.246101573907    -2.011854875257     0.828903866791
C     -1.999154886543    -2.196745870402     2.205375604638
C     -2.238061450402    -3.451773788030     2.800115356583
C     -2.728147030941    -4.520610613819     2.023566103252
C     -2.987416887418    -4.331899119894     0.651170698314
C     -2.746761768394    -3.078324684706     0.054969471148
H     -2.055139734550    -1.046727799184     0.363838827613
H     -1.628906359750    -1.369147017127     2.805135523515
H     -2.050164567966    -3.592655405096     3.862371510272
H     -2.915498442064    -5.487982935153     2.484446528930
H     -3.379239771928    -5.151939754085     0.053472204323
H     -2.964832576455    -2.930181181728    -1.000634166202
C     -0.175594162200    -1.832819746377    -2.088085600736
H     -0.167843373419    -2.737837293046    -1.490583472453
H     -1.129907982831    -1.523581053113    -2.501584537139
C      0.996064500163    -1.201490418461    -2.513378633701
H      0.927162888613    -0.385827010101    -3.218166106232
C      2.357842917202    -1.706140069821    -2.265492718701
O      2.519542189826    -2.813393716008    -1.684898893868
O      3.450184992518    -0.957983502636    -2.731871148954
C      4.745545441240    -1.433608140220    -2.341320188621
H      5.524527620575    -0.756724737695    -2.753550230841
H      4.844670704524    -1.439870149404    -1.231739452766
H      4.928189426304    -2.458282241750    -2.737188329281
Pd     0.087710333300    -0.016068894797    -0.798889605303
C     -1.457688154520     2.099572188208    -1.980939276564
O     -1.062563331469     0.830446072475    -2.208636320841
O     -2.148984207525     2.762603314281    -2.773854910261
C     -0.971360866071     2.712622148081    -0.626249924737
H     -1.802802782897     3.338774196105    -0.279072333519
C      0.261469506570     3.569616198446    -0.821387617406
H      0.537934824784     4.060734740393     0.133468945963
H      1.113843305413     2.931083868869    -1.140898804128
H      0.074126563985     4.349059808259    -1.589300590871
N     -0.601558719192     1.632997477215     0.307022255222
C     -0.626942019089     1.624687214076     1.599988147692
O     -0.192974382986     0.584379994059     2.309897660685
C     -1.143477810985     2.729012498633     2.427862566991
H     -0.368887391941     2.968107672638     3.178185007060
H     -1.351669135090     3.632016097027     1.840017032426
H     -2.058591818460     2.376553819228     2.935302285550
N      1.333205236453    -0.859046110225     0.637035440521
C      1.355102860758    -2.180697924982     1.013983377471
C      2.445340810907    -2.687746744430     1.684476540677
C      3.550862331188    -1.910093140505     1.943190483638
C      3.564296697904    -0.613472488302     1.505835280415
C      2.456230117379    -0.088334971393     0.799699115272
H      0.491275830916    -2.810120812249     0.843186278345
H      2.434047510077    -3.719936787359     1.994426354658
H      4.407516356715    -2.325342049487     2.467255822197
H      4.412841090954     0.025838015414     1.643104331163
O      2.542247980480     1.080883769817     0.344214721747
H      0.379752047883    -0.050402657902     1.738051232204

