# STO-3G

title

0 1
C      4.449121640545    -0.682808417993    -1.352818354554
C      5.491071916012    -0.301995389614    -2.220733565804
C      6.712986950931    -1.003515298802    -2.198817497741
C      6.890208139141    -2.082193330302    -1.308360370133
C      5.845703161197    -2.460598171142    -0.440923701949
C      4.621835904093    -1.761581915533    -0.462036546168
H      3.512321137014    -0.134817023033    -1.371682855547
H      5.344422626135     0.533153417641    -2.901790587523
H      7.519596956856    -0.711164930391    -2.867679860824
H      7.834469375647    -2.622348986937    -1.290586389186
H      5.983053204683    -3.292099756274     0.246612316540
H      3.809814396381    -2.050619248151     0.200749719351
C      1.422131842823    -1.513230686241    -2.797066121479
H      1.639630214563    -0.948010195931    -3.699914599109
H      2.282094245183    -1.903095492021    -2.263388676167
C      0.129951978660    -1.871744404819    -2.421796247852
H      0.000986454300    -2.495465741809    -1.549831885633
C     -1.071825171545    -1.670921528275    -3.248098617138
O     -0.972006074327    -1.174866310472    -4.401159431880
O     -2.328181645005    -1.928996889750    -2.673699670258
C     -3.461947679635    -1.717879821115    -3.527554460283
H     -4.393213108173    -1.960299573830    -2.971301224278
H     -3.518590993525    -0.655874789629    -3.858263403363
H     -3.411031195915    -2.379379320100    -4.422432243460
Pd     0.825917134162    -0.014494675006    -1.215737548429
C      1.060358865749    -0.897221764943     1.485632875082
O      1.214466489974    -1.371038605674     0.226168825945
O      1.107936784135    -1.603915256930     2.506980046629
C      0.802209305399     0.653012437839     1.558618756719
H      1.276559374915     1.007906229774     2.482161483978
C     -0.673472774214     0.974818548159     1.619342664591
H     -0.810946618177     2.074142191646     1.680922121159
H     -1.178544252585     0.603076507843     0.704849600017
H     -1.131736469184     0.499755523756     2.512153100925
N      1.328460098602     1.253654224261     0.318452963230
C      2.290437738613     2.137448319090     0.205128959914
O      2.900574259103     2.454715233442    -0.901952503124
C      2.762694543951     2.873531498868     1.394525393472
H      3.497882087811     3.637337306733     1.078849152357
H      1.895879277001     3.369089576773     1.863083625381
H      3.255427075282     2.163913941926     2.081553781108
N      0.258559595706     1.344211497045    -2.634448953402
C     -1.066502232258     1.586107593595    -2.872019187279
C     -1.446036235234     2.347136032947    -3.957515424508
C     -0.500338316145     2.862055753617    -4.817861347478
C      0.823521762830     2.638734064829    -4.545101328500
C      1.185163752563     1.876377268449    -3.411988095092
H     -1.817921737802     1.162470688941    -2.216007319535
H     -2.492388090078     2.515908894849    -4.148172482125
H     -0.797318385058     3.446888873289    -5.684190599716
H      1.608004363843     3.034527389377    -5.157451675956
O      2.449614799700     1.759377642887    -3.163385453925
H      2.710145852707     2.014288623829    -1.917479438766

