# STO-3G

title

0 1
C      4.453882137231    -0.581767851269    -1.261472508838
C      5.323924351082    -0.163099708352    -2.287611408956
C      6.510632341745    -0.881941687993    -2.533993302321
C      6.823343863375    -2.015422866906    -1.755861875588
C      5.948813888703    -2.432893192813    -0.732106023520
C      4.760729278348    -1.716148416295    -0.483526836108
H      3.542817839958    -0.024066067309    -1.070007826705
H      5.068544237607     0.710312377893    -2.883154614545
H      7.186138731701    -0.560505965422    -3.323851627497
H      7.741035873289    -2.568252888655    -1.945568608854
H      6.190570320807    -3.307582410667    -0.132426687792
H      4.076333684375    -2.033958485984     0.299197713335
C      1.497438807721    -1.385526975297    -2.870306418877
H      1.515976845907    -0.822105097462    -3.799224652977
H      2.466221304102    -1.633080620565    -2.448333571246
C      0.327595174017    -1.913623570557    -2.333917395928
H      0.398060826965    -2.521744020892    -1.444661459964
C     -0.993997431318    -1.890346264790    -2.982577730134
O     -1.145890486977    -1.304950506668    -4.087105346761
O     -2.095768885349    -2.394297376100    -2.271230397174
C     -3.358368867312    -2.344891074275    -2.950976265309
H     -4.145554447435    -2.779808382908    -2.297662987901
H     -3.642406740499    -1.294276288902    -3.186476214154
H     -3.323616722667    -2.938203357707    -3.893094868667
Pd     0.893849698067     0.060777343704    -1.223590087652
C      0.958599509270    -0.778837322114     1.503573436720
O      1.252384416325    -1.255413118837     0.270679638514
O      0.958055961341    -1.468216902772     2.537850744122
C      0.604748833697     0.753738350100     1.522966568579
H      0.959089434396     1.149719366926     2.482960838741
C     -0.885000710102     0.989595271695     1.424172313365
H     -1.089769350134     2.079964436859     1.445426309803
H     -1.271361283392     0.572796937787     0.472056481296
H     -1.405721149613     0.504242645529     2.276238511328
N      1.222595429464     1.363562895999     0.330513064314
C      2.162466862311     2.276807033388     0.299802353087
O      2.864236198904     2.604708042716    -0.748522343570
C      2.497416799298     3.036441999986     1.520631157766
H      3.236975429870     3.819254378171     1.267935537843
H      1.575725510181     3.510251233066     1.898249477221
H      2.941953063651     2.347879197065     2.259935075596
N      0.382076559692     1.388431789275    -2.696572065060
C     -0.925733844443     1.542917642830    -3.066874118461
C     -1.243505957936     2.279712471728    -4.188669110015
C     -0.253383517985     2.853389316209    -4.955640774775
C      1.049142948020     2.707364782725    -4.557623412149
C      1.345559896836     1.969938412213    -3.389359383969
H     -1.710386789203     1.075822023015    -2.483414459185
H     -2.275025172803     2.378004956609    -4.482568116149
H     -0.500803063550     3.418649517203    -5.850114907913
H      1.863698914842     3.147192500633    -5.096408410490
O      2.587918862081     1.916124135349    -3.035171381451
H      2.753479191396     2.167180183231    -1.776670113562

