# STO-3G

title

0 1
C     -3.090422281486     0.880951487918    -0.295389467126
C     -4.060576384378     0.898507462002     0.726600481122
C     -5.428562949827     0.807368800983     0.401409852967
C     -5.825035800777     0.699058490155    -0.946192322361
C     -4.853906347803     0.687290297944    -1.967046461309
C     -3.485697873435     0.779549301983    -1.644902328523
H     -2.031956241882     0.969185747780    -0.056675799111
H     -3.765558654962     1.000640936922     1.769085188614
H     -6.178084198674     0.824119170980     1.189800950290
H     -6.880945280969     0.627717930984    -1.198468382933
H     -5.157231426082     0.609177469708    -3.008587393851
H     -2.741544695422     0.787991483774    -2.436444643427
C      1.234975065250     2.946908235577    -0.058646818163
H      1.431203193903     3.097881022098    -1.116341900741
H      2.094742498661     2.777352434622     0.584692880939
C     -0.038529602816     3.126079343841     0.476351093880
H     -0.159755635619     3.071485312492     1.548669313319
C     -1.188745881793     3.686714228115    -0.254792873316
O     -1.055561322990     4.082483127502    -1.442073774674
O     -2.390478209115     3.874018514343     0.449387123384
C     -3.492211756302     4.378295356879    -0.319558811787
H     -4.389865506966     4.458172275657     0.329921511850
H     -3.261759283989     5.388386951620    -0.727634670909
H     -3.738275890196     3.688993833013    -1.159583589902
Pd     0.465760234604     0.842468560548    -0.001115184782
C     -0.209650940493    -0.192780309104    -2.567750440594
O      0.023871104839     0.988672682032    -1.950759244502
O     -0.702092240952    -0.292865790331    -3.706266872793
C      0.172125122911    -1.460362322770    -1.724028936570
H      0.631392477267    -2.164750977548    -2.429491533066
C     -1.037769538482    -2.124993954270    -1.108236959491
H     -0.727727914447    -3.060275554625    -0.598912066380
H     -1.499348955128    -1.454323499534    -0.358283621326
H     -1.784859937455    -2.367688506445    -1.893178490848
N      1.050845725542    -1.027233898687    -0.622361743613
C      2.275120456030    -1.437470817753    -0.379633681163
O      3.130153352058    -0.855014009058     0.409026073665
C      2.777051210274    -2.674243475834    -1.013661767489
H      3.767278265227    -2.922953946118    -0.588178615141
H      2.068036805129    -3.489950099816    -0.792854264876
H      2.885764124740    -2.503449890007    -2.098435904239
N      0.650946919457     0.631008100911     2.033561306482
C     -0.480473359633     0.432625248667     2.776044441328
C     -0.431356303171     0.547047992947     4.149204203800
C      0.754918892164     0.839280024916     4.787873802670
C      1.884740685806     0.993778965635     4.028352309699
C      1.808270736046     0.857151607794     2.624630963607
H     -1.418255075332     0.211566103742     2.282648166468
H     -1.330784432102     0.406434133497     4.726352197198
H      0.796218149991     0.930750397261     5.870105821295
H      2.843389623723     1.194046588962     4.463539362072
O      2.916478799625     0.958268523789     1.964514934241
H      2.993198069325     0.083138088596     1.043099073197

