# STO-3G

title

0 1
C      0.328688822217     0.528998991519    -2.935515562010
C      0.468466213856    -0.756469877645    -3.498447271590
C     -0.467229362278    -1.219258668482    -4.444333428277
C     -1.537388888402    -0.392130548159    -4.841215101553
C     -1.663680472409     0.903235583267    -4.300643217531
C     -0.729569343091     1.363711487997    -3.351511312614
H      1.058134321771     0.866324876720    -2.205044474406
H      1.310251406094    -1.381065870215    -3.206828730427
H     -0.355368490437    -2.210300008486    -4.878700181463
H     -2.254919396439    -0.746573114507    -5.578196521716
H     -2.473010953037     1.552747318779    -4.628028512591
H     -0.820838712446     2.372903311959    -2.954172377653
C      0.312102725856     2.726578085002    -0.277283962133
H      0.929961321883     2.757462788883    -1.168025343951
H     -0.734676107674     2.986804245356    -0.385111628506
C      0.878889427202     2.627390405850     0.990038510388
H      0.257125313403     2.718967499355     1.871464073228
C      2.331713164846     2.578389736991     1.241880257104
O      3.135386081316     2.904396841616     0.326878998122
O      2.776726807311     2.337622774923     2.553094657065
C      4.199176325001     2.266132079196     2.722907595502
H      4.433180756270     2.056647077332     3.788545995743
H      4.628946380752     1.446164730167     2.102691922060
H      4.680372208690     3.230933046615     2.443685262372
Pd     0.115314618481     0.525826878094     0.438777209761
C      2.158318453304    -1.362083433495    -0.132369902824
O      1.995667879485    -0.022692370485    -0.020192266175
O      3.150921213069    -1.900671168509    -0.654624447877
C      0.976279310810    -2.218114183411     0.457647134687
H      1.442992834352    -3.058219710289     0.988791555042
C      0.074558508144    -2.772318348320    -0.621018842994
H     -0.687464849839    -3.434890465320    -0.161894864265
H     -0.449385420496    -1.941955371556    -1.135888256636
H      0.666812747240    -3.353868094971    -1.358156990794
N      0.154992132152    -1.332072864636     1.296325566179
C     -0.129574778219    -1.459725211884     2.570029720633
O     -0.651288288752    -0.537559413343     3.328788409154
C      0.141031462572    -2.737973358974     3.258552576941
H     -0.363883261489    -3.546814350396     2.703556462049
H      1.232529284392    -2.886987220569     3.303630090161
H     -0.260024180104    -2.691355035803     4.288807865020
N     -1.882665510832     0.919193070705     0.631306264872
C     -2.682613354746     0.738446463808    -0.463250655003
C     -3.968053557843     1.238053471009    -0.461602770598
C     -4.465346123503     1.895441663276     0.644177178330
C     -3.659743107854     2.025086489279     1.745673999526
C     -2.351086771563     1.494172263267     1.720597289378
H     -2.299390072262     0.221056502860    -1.333919229431
H     -4.588008946497     1.105886170846    -1.333279221392
H     -5.478884834171     2.287728205104     0.648389389544
H     -3.993837285596     2.497927291408     2.647384305072
O     -1.650486761212     1.591527493315     2.804896307991
H     -1.004022129960     0.498257110207     3.037333313128

