# STO-3G

title

0 1
C     -0.323931257265     1.043364482651    -2.158217070596
C      0.865715318100     0.388682202363    -2.539581922177
C      0.873592855491    -0.445768496925    -3.675180635968
C     -0.304047585563    -0.625526731044    -4.428449333288
C     -1.488390508071     0.041539029377    -4.056011385326
C     -1.496204102023     0.880387706705    -2.924107271102
H     -0.333780638643     1.693251795316    -1.285991179394
H      1.775013458034     0.523178680439    -1.960273489223
H      1.791769777353    -0.949020729184    -3.968265927392
H     -0.295391459342    -1.268589488987    -5.305784626153
H     -2.391399270633    -0.080250510854    -4.650210491962
H     -2.402512307871     1.420151950576    -2.654986246904
C      1.212055248619     2.114415615917     2.332591527141
H      2.189422467405     1.697256463591     2.555957181202
H      0.473329796857     2.209021932501     3.123929047536
C      0.928476213680     2.665239025114     1.082335736062
H     -0.021900161210     3.164221204230     0.941086988564
C      1.939964613558     2.909201421123     0.038981417694
O      1.575229492881     3.460026956448    -1.032770797106
O      3.289542242899     2.597880685311     0.277522487555
C      4.185934679882     2.802431697637    -0.822747116836
H      5.213242828610     2.509699218939    -0.516586839794
H      3.892904247445     2.172628468225    -1.692858640877
H      4.203007539585     3.873548067756    -1.126392109113
Pd     0.214726098052     0.454512055747     1.189916401435
C      2.162553594300    -1.484980208096     0.378610021168
O      2.055107189500    -0.187840699140     0.729248314195
O      3.202960987661    -1.999399146226    -0.069965655990
C      0.863999100420    -2.350828288051     0.566947982815
H      1.193180479778    -3.275568579546     1.060487900523
C      0.227795925865    -2.709946698571    -0.757535128892
H     -0.614833320095    -3.411547315536    -0.594567182659
H     -0.166179938997    -1.797360909863    -1.246697357875
H      0.973207335362    -3.189685486981    -1.426271182765
N     -0.137345515331    -1.590064774768     1.338307850109
C     -0.901194518335    -2.027877803529     2.292574876421
O     -1.739139639133    -1.249093601605     2.969367364700
C     -0.902220156430    -3.441681704276     2.703564709085
H     -1.145076481463    -4.064840882220     1.826430233688
H      0.092248982309    -3.687165811722     3.113204637443
H     -1.666416856552    -3.595578017217     3.489065397691
N     -1.775666489743     0.976305858393     1.427547264058
C     -2.537263408113     0.557042816080     0.365501017486
C     -3.756369707393     1.140975031921     0.112122344743
C     -4.237047960274     2.154758668650     0.908464143495
C     -3.473714886998     2.585763139023     1.958208156330
C     -2.207606469695     2.005404310118     2.215563670788
H     -2.188466598393    -0.258369261274    -0.257703673557
H     -4.347234652105     0.789429773260    -0.718091789843
H     -5.204089623093     2.607669082260     0.705666334321
H     -3.792799513437     3.380286087371     2.603458211987
O     -1.546801838262     2.469274121708     3.180019004726
H     -1.768779114868    -0.292570101747     2.610638204297

