# STO-3G

title

0 1
C      2.166613570885    -0.429494832210     0.556180941738
C      2.646001319362    -1.270619055489    -0.467832602367
C      4.004201801532    -1.647452847364    -0.482654432879
C      4.877349628690    -1.182528108027     0.521500128096
C      4.394002057095    -0.339288118400     1.542830698936
C      3.036469082288     0.037111396277     1.560904623612
H      1.121180904220    -0.137838788123     0.576884814962
H      1.966662403146    -1.621867235233    -1.240395335121
H      4.377483766197    -2.298080867736    -1.270291755034
H      5.925321140136    -1.474484552717     0.508414456351
H      5.067999042465     0.019537293521     2.317435873208
H      2.652232636969     0.688525332753     2.342111515996
C     -0.857853819113     2.008845169427    -2.020963565996
H     -1.537762294853     2.849369550516    -1.920617676192
H     -1.035805176211     1.303355948193    -2.825082954339
C      0.344882065666     1.961891576632    -1.319969404983
H      1.067361909126     1.190643214532    -1.542944193458
C      0.824078671048     3.018858236587    -0.409967338636
O      0.118856517644     4.045619508526    -0.214554838122
O      2.095540895311     2.885128108669     0.167609165008
C      2.419961054428     3.833815458092     1.191931194420
H      3.438326784865     3.617732522446     1.580016265706
H      2.411017836062     4.872011704373     0.789895940471
H      1.702454002364     3.754506573220     2.040686762302
Pd    -1.185188373522     0.521371333044    -0.345182555256
C     -1.211025384948    -2.035409297712    -1.607719436128
O     -0.567618567271    -0.847067960376    -1.693542895457
O     -1.087780862211    -2.955067004535    -2.434967437150
C     -2.152197109450    -2.162433104532    -0.355941035403
H     -2.122610244714    -3.215552410676    -0.049529491183
C     -3.581799721214    -1.798188246398    -0.686224712860
H     -4.213724712787    -1.922077287002     0.217459880776
H     -3.635488532058    -0.741001751446    -1.015239470536
H     -3.967586796725    -2.456393645912    -1.492966032344
N     -1.681846711777    -1.203418542115     0.663065989569
C     -1.263178386110    -1.477180665990     1.875600234557
O     -0.650143676160    -0.647127386769     2.669130471804
C     -1.475964995854    -2.821601020757     2.448374883978
H     -1.139847264926    -2.822943000259     3.502242735847
H     -2.553777801366    -3.051481057915     2.406685181305
H     -0.873081979018    -3.551064929668     1.880089823176
N     -1.975088122942     1.930667676538     0.910577719660
C     -3.126135602353     2.569630569533     0.539341681265
C     -3.587863177190     3.644105881356     1.269557001142
C     -2.895156584717     4.090686724570     2.374092454532
C     -1.759873630368     3.422370727999     2.748479699418
C     -1.315859048005     2.317259170656     1.988196986856
H     -3.668437134491     2.236385381818    -0.337561286052
H     -4.486892854363     4.150531168343     0.960028030397
H     -3.248270624210     4.946623282874     2.942801549260
H     -1.184272446189     3.709564117813     3.604157332597
O     -0.257309184956     1.706789527646     2.410979536828
H     -0.401647032144     0.426609680383     2.445875668573

