# STO-3G

title

0 1
C      2.565266033943    -1.547508243809     0.145843215397
C      2.025096581267    -2.670840734545     0.804845190600
C      2.774428940771    -3.333381219383     1.797173204831
C      4.066599111850    -2.876579788084     2.127463888492
C      4.610659431849    -1.760159619901     1.461026956073
C      3.860780679515    -1.096494583956     0.469421200523
H      1.988697091077    -1.031878457101    -0.616151970878
H      1.023808283239    -3.018250764299     0.559862511952
H      2.355679426713    -4.199590360206     2.305159695818
H      4.646962777114    -3.392847501646     2.889161767052
H      5.613295423667    -1.415837547900     1.703778817493
H      4.281701033458    -0.238577203199    -0.051003499935
C      0.215174533024     2.659664242035     1.192356183960
H     -0.264002684447     2.628371880818     2.167231299141
H     -0.365721438890     3.092200637434     0.383002076843
C      1.572466193478     2.378581042071     1.017294973152
H      1.997772164443     2.495572274172     0.032705029696
C      2.548660402767     2.185472688895     2.102063727511
O      2.178344880939     2.244990819487     3.304671399211
O      3.885566702696     1.916335007003     1.763690881716
C      4.772011433931     1.664275048102     2.862762141190
H      5.793942556037     1.468014070614     2.473156222943
H      4.822081276196     2.545885766553     3.541653641565
H      4.441647967175     0.770133868301     3.438885561019
Pd     0.165791597283     0.614801496688     0.306069375071
C      0.635323600394     0.662562010002    -2.553349445165
O      0.830274746085     1.379518669052    -1.427484049680
O      1.281145857339     0.841662695685    -3.601866435879
C     -0.520616217629    -0.366288576057    -2.457772060734
H     -0.243889378506    -1.222670986129    -3.089114468228
C     -1.794702693703     0.259091212644    -3.000094569258
H     -2.630569484078    -0.466756057433    -2.991736318114
H     -2.078262742623     1.126671150777    -2.367150098959
H     -1.638109570960     0.605731758392    -4.043714363974
N     -0.773822672433    -0.733616058464    -1.040756116195
C     -1.498979877462    -1.766764739861    -0.676367203633
O     -2.098743623943    -1.868515826569     0.475111417426
C     -1.625407128268    -2.952001462773    -1.552967523595
H     -2.172817118650    -2.680111192346    -2.468225854407
H     -0.609773581630    -3.316490815910    -1.783394331740
H     -2.185415736959    -3.742337978509    -1.018015928212
N     -0.201444612865    -0.122978128612     2.202509454083
C      0.852367247500    -0.426764130232     3.024088117015
C      0.642477945930    -0.642762455974     4.370165184173
C     -0.620260019067    -0.548350472308     4.909043708473
C     -1.668749880027    -0.283581612106     4.069567301857
C     -1.429604087728    -0.099977920868     2.688735145839
H      1.856752916234    -0.473030352011     2.626232033282
H      1.485709098393    -0.853427379164     5.006114915423
H     -0.783697877410    -0.701813813598     5.972220163070
H     -2.681303516881    -0.243264507609     4.415804542319
O     -2.470398515073     0.023346209226     1.926585454741
H     -2.301702027963    -0.925219769766     1.051393250108

