# STO-3G

title

0 1
C     -0.124789369211     0.698061264766    -2.789789964370
C     -0.212503734486    -0.554951654846    -3.430907604260
C     -1.329855407437    -0.862398838841    -4.231777473540
C     -2.355976428813     0.088106804834    -4.405981778864
C     -2.257245939515     1.351387111857    -3.789070763677
C     -1.141119948729     1.656557593519    -2.984877465380
H      0.741211902984     0.914714316446    -2.171732954875
H      0.593840298396    -1.275849937017    -3.313199860696
H     -1.393990008776    -1.829064645505    -4.726570539054
H     -3.215052784129    -0.146759912165    -5.030896705094
H     -3.035584469602     2.095465818931    -3.946109824338
H     -1.062273827795     2.641124579520    -2.527597336263
C      0.508293840678     2.660468188530    -0.028890659478
H      0.997171193690     2.683981160177    -0.996316426595
H     -0.511835900255     3.024737594356     0.024808448897
C      1.225611978474     2.432339654803     1.141501127516
H      0.741757620738     2.532507566423     2.105235045845
C      2.683017615128     2.212679653644     1.182890299732
O      3.225039578375     1.951479585820     2.289108992344
O      3.450513162076     2.425794808896     0.023344113141
C      4.822229113658     2.016450975337     0.102443685968
H      5.321640012715     2.215650749585    -0.869645099927
H      5.361423172031     2.581839804606     0.895833470780
H      4.892594151930     0.923641356568     0.308060788996
Pd     0.205688222630     0.443984264107     0.580231927728
C      1.972146602682    -1.541810207725    -0.426412092969
O      1.935725256842    -0.205399859992    -0.214337200642
O      2.825173377983    -2.106507299483    -1.134963031915
C      0.832431698907    -2.352717372253     0.295265332702
H      1.309179493970    -3.255693256348     0.699243640356
C     -0.263117712385    -2.772498272524    -0.657349613915
H     -0.992431559141    -3.414415181277    -0.121998429462
H     -0.797244841142    -1.876718505475    -1.033325234458
H      0.163467748779    -3.339542593999    -1.511033910348
N      0.217704089407    -1.472599352007     1.300154424485
C      0.115508349008    -1.669845524599     2.593397532192
O     -0.219986974100    -0.771961477784     3.475136477604
C      0.387878360939    -3.008247300042     3.155658403099
H     -0.252364282479    -3.741990339940     2.637415397958
H      1.460197427748    -3.229868092314     3.026061363144
H      0.148393369341    -3.007071718244     4.236017021731
N     -1.699297805990     0.978196608123     1.097605731151
C     -2.659967564996     0.945032505884     0.124719590393
C     -3.882640409614     1.542241895975     0.349061460937
C     -4.157132654185     2.149538960693     1.556555404880
C     -3.194826069594     2.129975741467     2.532490942636
C     -1.955710455975     1.500704578251     2.279795636644
H     -2.452489255302     0.466670709530    -0.824222491943
H     -4.629849778150     1.525712983263    -0.427444510780
H     -5.120986470066     2.618250226857     1.736667927264
H     -3.354037872591     2.555429177181     3.503076017699
O     -1.104238501443     1.456721486170     3.253625395177
H     -0.524059281059     0.310897050998     3.311452833105

