# STO-3G

title

0 1
C      0.827228598184    -3.168153270683     1.190948749879
C      0.291717793192    -3.809326955443     0.055009679824
C      0.702727667496    -5.117361685590    -0.270402678363
C      1.647829921292    -5.781885459284     0.536994090959
C      2.181832997539    -5.138837356213     1.672186669126
C      1.770067675053    -3.831590143818     1.999913340375
H      0.519455473865    -2.160503573028     1.453607808105
H     -0.428941370303    -3.289699493600    -0.573650525513
H      0.288768947261    -5.613654112150    -1.145442173667
H      1.963790555432    -6.792057648697     0.285320725394
H      2.909904289605    -5.652344572945     2.296427086153
H      2.172677284029    -3.329061902363     2.876255386938
C     -2.010534750308    -1.218913751978     1.671167090810
H     -1.952594965751    -2.177160539635     1.164253810976
H     -1.567781374910    -1.177833458536     2.661866299247
C     -2.769464363333    -0.164467327072     1.163509814020
H     -2.920043324520     0.714018045536     1.771325191111
C     -3.626493717187    -0.259246950666    -0.031751001411
O     -3.995010380506    -1.388102111001    -0.452765471843
O     -4.168509961804     0.928190334693    -0.553259775190
C     -4.912912821075     0.782743697759    -1.771174997433
H     -5.275558644452     1.778242781555    -2.105088667083
H     -4.270014915101     0.357932169353    -2.577077260209
H     -5.797148192475     0.122500937124    -1.619787640766
Pd    -0.553775470807     0.059423370755     0.532735740319
C     -0.312243797366    -0.357903219619    -2.237263531012
O     -1.050706249827    -0.802184232146    -1.194890857244
O     -0.740162824258    -0.275474759672    -3.401748138360
C      1.170837729466    -0.011069247770    -1.885955249259
H      1.442788125519     0.864772338897    -2.489899477581
C      2.050590691583    -1.192501901723    -2.270958766187
H      3.124378586103    -0.934601140109    -2.221677653532
H      1.851384055700    -2.043757714356    -1.586106817107
H      1.830446848060    -1.512181909365    -3.311893385182
N      1.290414652236     0.235069226021    -0.419535190322
C      2.397096226429     0.404643157054     0.267248668863
O      2.532538412699     0.193266500962     1.546639880124
C      3.629444820531     0.928782136362    -0.357467480109
H      4.386035052027     0.125437663384    -0.341181869371
H      3.443300544320     1.285328579984    -1.380754051953
H      3.981119265204     1.779924951893     0.253459275766
N     -0.284986887492     1.227712282505     2.212077273402
C     -0.874633353605     2.461555761882     2.251831173942
C     -0.980950098121     3.133768707243     3.451358274268
C     -0.476602725856     2.586321405143     4.612155411498
C      0.151051155348     1.370118953360     4.542921399462
C      0.258445439620     0.709344839965     3.299322614018
H     -1.290867305557     2.890615630981     1.347529913784
H     -1.466242500345     4.095949092170     3.478573916234
H     -0.559487439854     3.115373691553     5.557938250912
H      0.597215179361     0.906627349631     5.399851050815
O      0.932142920016    -0.394738126500     3.263944552655
H      1.765390156536    -0.216658810724     2.224610514462

