# STO-3G

title

0 1
C     -0.448761897101    -0.421362397925    -2.567636448162
C      0.043459078198     0.059403542715    -3.796875321069
C     -0.708496217897    -0.117852096455    -4.975196756333
C     -1.953612669671    -0.775708445431    -4.923268263640
C     -2.445325158745    -1.258241488418    -3.693930799805
C     -1.693503503312    -1.081550088373    -2.515640520840
H      0.125336276364    -0.278438418255    -1.655327725037
H      1.007502366060     0.562426700841    -3.841973930914
H     -0.327731180689     0.251097758943    -5.924996108698
H     -2.534383456181    -0.912723052740    -5.832752147445
H     -3.405635943619    -1.767758236100    -3.654667607079
H     -2.076934218191    -1.454239024669    -1.567821798851
C      1.589456312557     2.061271751519    -0.727812703445
H      0.814430006511     2.437758124209    -1.389577460132
H      2.359999580854     1.443001032488    -1.176192642717
C      1.754004976265     2.541058357234     0.580212624702
H      2.631223358175     2.215659208051     1.112245482443
C      0.973075834522     3.673592907853     1.145644749242
O      0.158862524274     4.265543707424     0.393599008000
O      1.159082187499     4.166826465043     2.451856530600
C      1.973548666942     3.411429588674     3.359584321319
H      1.919872548690     3.881021059736     4.365598492085
H      1.602237172344     2.366371400199     3.463365498692
H      3.040319482335     3.420851525532     3.045685414619
Pd     0.771144017851     0.484616249773     0.605673444456
C      2.873758699743    -1.453149667492     0.977995091630
O      2.668933857084    -0.148716954507     0.691216332177
O      3.973095992107    -1.917923836378     1.322603038775
C      1.627161961189    -2.367637710950     0.765885985744
H      1.692388692700    -3.174755924845     1.506853127919
C      1.661634656170    -2.968581192768    -0.627693942096
H      0.769355926219    -3.597609071429    -0.811230533391
H      1.682996186044    -2.160515488028    -1.386471741354
H      2.570176377907    -3.595973847869    -0.747358787971
N      0.385537979168    -1.570843954780     0.882134634134
C     -0.788023439104    -2.015897432238     1.215260160280
O     -1.879515349390    -1.267262717437     1.172220566930
C     -1.004193865234    -3.396263747280     1.686016102569
H     -0.706874920529    -4.104313760261     0.897454333699
H     -0.412514181316    -3.541374952726     2.606042609505
H     -2.076006191749    -3.539096841586     1.920831446025
N     -1.158526886394     1.256403965906     0.767094961572
C     -1.888265198153     1.883383842515    -0.213307122019
C     -2.924493869369     2.722215342159     0.128999094723
C     -3.216314603011     2.998571151238     1.446692583471
C     -2.451442607451     2.428412136705     2.428224778749
C     -1.368906379117     1.589185060229     2.083226495818
H     -1.691673059015     1.673336049773    -1.256420355884
H     -3.499848248591     3.191239197577    -0.652267166604
H     -4.026398849862     3.676333855515     1.702329253202
H     -2.597804912975     2.651559601893     3.465660136117
O     -0.615520643878     1.161868903444     2.995981745296
H     -1.684199869212    -0.271204431976     0.977485011163

