# STO-3G

title

0 1
C     -1.357647897390    -0.992011322722    -1.871214837046
C     -2.586867312724    -1.671715578315    -1.991822154937
C     -2.849717125879    -2.459290203646    -3.129711551492
C     -1.883205921959    -2.568417086364    -4.149851033448
C     -0.655051616252    -1.887321252071    -4.032183848425
C     -0.393683776926    -1.098518586552    -2.893891486137
H     -1.160874288719    -0.394775725541    -0.987721889127
H     -3.327569109820    -1.581498283611    -1.200051485627
H     -3.799814921175    -2.980660984001    -3.221295236417
H     -2.085995586596    -3.176576443926    -5.028529623343
H      0.089612225646    -1.970791632006    -4.820576464713
H      0.556238311322    -0.575320187850    -2.807124182372
C      0.309137768467     2.200821828687     3.193256155456
H     -0.591396585001     2.760213416657     2.951820345038
H      0.252206685633     1.541836442738     4.054470571502
C      1.526418290060     2.421158115736     2.548203999697
H      2.398984715997     1.881299663662     2.883930815802
C      1.778014767949     3.517957525025     1.598659689162
O      0.887026984495     4.379682384607     1.376134435939
O      2.984127388784     3.514514081479     0.877016982476
C      3.169284298689     4.606236209361    -0.035694040031
H      4.153125694017     4.501704353550    -0.542050693699
H      2.373290250320     4.612448970316    -0.814854477182
H      3.160196529926     5.579640561244     0.505933630253
Pd     0.464380977751     0.542647311660     1.702055872540
C      1.903901451523    -1.738876587655     2.630539881029
O      1.635195158650    -0.460577898795     2.993232798964
O      2.740842499375    -2.460254992273     3.198633475421
C      1.061893562791    -2.245797045758     1.403610617217
H      0.851436041252    -3.307274571698     1.584782077713
C      1.821933608295    -2.123386327388     0.102955851427
H      1.201376381360    -2.522753191877    -0.726169447377
H      2.047990433045    -1.057868797285    -0.102926288937
H      2.769528369285    -2.699225679213     0.157531653114
N     -0.128778405708    -1.385924799675     1.293930412150
C     -1.385472991513    -1.745524556916     1.383281388754
O     -2.395831592876    -0.931797189207     1.514080426562
C     -1.753878581868    -3.172301209221     1.298429654721
H     -1.341492905957    -3.579384281711     0.358303576579
H     -1.358073412450    -3.693318368885     2.185577675496
H     -2.856074047776    -3.266243077132     1.284238625694
N     -0.522897549861     1.621423409368     0.267164768629
C      0.164744586733     2.102806645738    -0.813625538196
C     -0.443826432820     2.979247243706    -1.685593657351
C     -1.742527926546     3.389527191327    -1.474149228717
C     -2.423248605118     2.881414368975    -0.399423963902
C     -1.783218594303     1.967091727948     0.465990128133
H      1.191958121241     1.798928860879    -0.977648949756
H      0.106294798687     3.357589922821    -2.530464476919
H     -2.221527099585     4.089342276891    -2.153492572183
H     -3.441649270416     3.141327406318    -0.193816806643
O     -2.499638255713     1.465930047417     1.417693620348
H     -2.359485946601     0.200328401330     1.566774902565

