# STO-3G

title

0 1
C     -2.282014330281    -2.412387553304     1.338288478572
C     -3.692277356091    -2.468886183019     1.250121993580
C     -4.321621845672    -3.509587865732     0.537430154659
C     -3.542475232639    -4.506101193372    -0.083343302739
C     -2.135506896644    -4.464744962122     0.010771669920
C     -1.506543889128    -3.423812621411     0.721277807549
H     -1.802140258149    -1.641968766556     1.943147348858
H     -4.291249830966    -1.710655417655     1.749713449383
H     -5.406442362958    -3.546790719777     0.472490289936
H     -4.026954409309    -5.312667269443    -0.629115169886
H     -1.534695108165    -5.241907648073    -0.455575272074
H     -0.422877329085    -3.396201444871     0.804238468124
C     -0.582036645348     1.607793157403     1.231871043275
H      0.308364779889     2.210491518006     1.377967913470
H     -1.030228432453     1.154539674387     2.112052416978
C     -1.210326257419     1.505543539359     0.006266878529
H     -2.161483587937     1.000750188006    -0.061295426668
C     -0.806716036170     2.240600234734    -1.205879022832
O      0.290943906286     2.859791931557    -1.228178735187
O     -1.637995617995     2.188481081706    -2.339389766394
C     -1.272984921450     3.053374182129    -3.424475540722
H     -2.004841789420     2.935520507668    -4.252525392503
H     -1.286831709388     4.119108421235    -3.100681347189
H     -0.261477822679     2.802841918109    -3.814587603841
Pd     0.325418211345    -0.360743603023     0.303162639796
C      1.920635870890    -1.995760029312    -1.429194066766
O      1.618670015314    -1.877335535849    -0.122679429662
O      2.787177483037    -2.759780648285    -1.889933630607
C      1.075624142791    -1.062614526218    -2.374993180678
H      0.952944843850    -1.595448906691    -3.325438822114
C      1.778889474562     0.248851437681    -2.633851300515
H      1.161460315213     0.876217266016    -3.306417299566
H      1.938761601255     0.793252315424    -1.680294266270
H      2.762356295173     0.064935353780    -3.115012581869
N     -0.189863336678    -0.764805900201    -1.670901115680
C     -1.385620377164    -0.987976715679    -2.110815455070
O     -2.475046342330    -0.959464823650    -1.330376278259
C     -1.660973886164    -1.225929805383    -3.536624566296
H     -1.223471317014    -0.394045537021    -4.115513296785
H     -1.230389018502    -2.199490393230    -3.824158955424
H     -2.755182055345    -1.249587652962    -3.698974928335
N      1.124014814133    -0.358575971032     2.171320673721
C      2.486383383737    -0.463945277095     2.239660465678
C      3.100857175131    -0.678419699046     3.454191376944
C      2.358415510742    -0.807331047559     4.605212848450
C      0.995351287979    -0.713042196980     4.522687780992
C      0.365664228326    -0.496554700049     3.270689855977
H      3.085962488706    -0.348323662715     1.344436345024
H      4.174397975194    -0.755688876170     3.495213694645
H      2.844336116903    -0.983225695859     5.560989771542
H      0.365533025991    -0.815499498505     5.382465884935
O     -0.907448263707    -0.438048300024     3.273588803159
H     -2.329005947456    -1.253636350803    -0.387480751597

