# STO-3G

title

0 1
C      0.732097632185    -2.974570461219    -0.776937703589
C      1.553668701713    -4.066728567478    -0.436634443908
C      2.155183176869    -4.836116625604    -1.452381673748
C      1.931903954878    -4.514157423436    -2.806809648230
C      1.105349312292    -3.423949914289    -3.145828806002
C      0.504228858057    -2.653100468515    -2.130557309179
H      0.281757618007    -2.390627753592     0.019248076167
H      1.707087596151    -4.307615785211     0.612274711973
H      2.790015376768    -5.680204421936    -1.191599333061
H      2.395586498184    -5.108908689726    -3.590961383457
H      0.930120058021    -3.177667335454    -4.190836491382
H     -0.131445144642    -1.808553054604    -2.392774658889
C     -2.397612814966    -2.117924149600     0.265677107701
H     -2.078130462193    -2.217307182155    -0.766720881940
H     -2.092902007118    -2.916710854495     0.935450642932
C     -3.305853060459    -1.136061732148     0.663816510704
H     -3.719963195083    -1.176207008939     1.658805348708
C     -3.988132566116    -0.212366835452    -0.260286475908
O     -4.053896377147    -0.488338827973    -1.488025969447
O     -4.736376447560     0.841552346249     0.292308575728
C     -5.308213016453     1.754436574316    -0.655356376833
H     -5.855689513381     2.555461103733    -0.114341192189
H     -4.511403641163     2.232214210380    -1.271716765273
H     -6.028138601933     1.231810219635    -1.325611746962
Pd    -1.124525728734    -0.442367069484     1.039014930874
C     -0.477511156895     1.650767869484    -0.751461081564
O     -1.275735981149     0.558151306554    -0.680766384714
O     -0.766622357745     2.678067675335    -1.388350351293
C      0.892075643168     1.473028673014    -0.032549237280
H      1.229733287748     2.462223600625     0.305073192814
C      1.891703109201     0.907463234979    -1.029903303939
H      2.901625404301     0.811473741413    -0.592710860905
H      1.560172470747    -0.100137887779    -1.355461657998
H      1.959454436273     1.568518669697    -1.919877755658
N      0.744581577835     0.494903297343     1.078857268703
C      1.669175132851     0.221991036293     1.968838692555
O      1.737730086088    -0.885200870168     2.656852096498
C      2.682602015970     1.233749510880     2.339040476375
H      3.350014265733     1.432099670249     1.489293038043
H      2.150804502044     2.148422687054     2.650915532239
H      3.284650900536     0.855241137673     3.186845394798
N     -1.278824778420    -1.249122107409     2.935707606818
C     -2.185418903074    -0.705262910324     3.804502496455
C     -2.543560568996    -1.392680303974     4.945033732978
C     -1.976989392280    -2.615094041265     5.237093557760
C     -1.031687551656    -3.118377919858     4.382620677544
C     -0.670524841040    -2.386540643478     3.229418722770
H     -2.650728552931     0.246308011062     3.573904342632
H     -3.276345504882    -0.968059314974     5.611918614623
H     -2.258097267518    -3.157573690435     6.135963173826
H     -0.520984888627    -4.040753225458     4.573822077400
O      0.297440620731    -2.848425242557     2.508121003987
H      1.124903269938    -1.757149652913     2.424178666468

