# STO-3G

title

0 1
C      3.200012289407     1.949078878792    -2.058598685934
C      4.189883156586     1.794596352014    -1.067022221115
C      5.292556980966     2.670467283244    -1.029008342308
C      5.409867977587     3.700857620811    -1.982649772402
C      4.427119793812     3.849418057407    -2.981102237699
C      3.325769609529     2.972089634954    -3.019540952617
H      2.345599539306     1.278109650139    -2.099734856811
H      4.114090948620     0.993832539148    -0.336386262791
H      6.056510951948     2.546830721755    -0.264937511686
H      6.262038106657     4.375763622508    -1.952851987206
H      4.520756031856     4.636222173101    -3.725797831447
H      2.576900041975     3.076531915193    -3.801211061029
C      1.639216074762    -0.844037943440    -0.429293495948
H      1.808262984152    -1.886260728032    -0.175997351089
H      1.727062496356    -0.586625911019    -1.480493990801
C      1.516782732672     0.138502607217     0.559824291241
H      1.525902386381     1.175838858206     0.265721395933
C      1.705543149700    -0.106399660047     2.000417385760
O      2.353500568689    -1.117304223021     2.381995833886
O      1.379176013149     0.929435557198     2.892773817981
C      1.564572052975     0.628961239226     4.283357301637
H      1.258216058108     1.504131022532     4.895268028158
H      0.939686799186    -0.243420725700     4.584839820217
H      2.634218520186     0.408520313677     4.502375250678
Pd    -0.544089658847    -0.608982141160    -0.147543106643
C     -1.718147568234    -2.385727653029     1.722586061484
O     -0.504849483368    -1.885838506277     1.381744127560
O     -2.022986145244    -2.728895650058     2.877322104365
C     -2.675206189502    -2.578422902939     0.511061423261
H     -3.707396748494    -2.512007427355     0.880588160485
C     -2.433970331184    -3.958948812158    -0.080177567667
H     -3.110540588152    -4.164144056006    -0.929882473362
H     -1.386293676338    -4.025820015386    -0.443762654033
H     -2.597097382119    -4.738819359283     0.693810946192
N     -2.359067169841    -1.572275164106    -0.537561651294
C     -3.086755187913    -1.351314076198    -1.608937017029
O     -2.645735652642    -0.818265621297    -2.712966854621
C     -4.540083556285    -1.629411382799    -1.601223936856
H     -4.981675924834    -1.267797288630    -2.548631311782
H     -4.715512859461    -2.710638614597    -1.514447686872
H     -4.993270081881    -1.081768767161    -0.756367837619
N     -0.602831135118     1.058378833687    -1.364706357293
C     -0.712870028835     2.274187859783    -0.745157941733
C     -0.521546284260     3.433319443507    -1.466234275609
C     -0.244386295456     3.384948812426    -2.814994176086
C     -0.178819903199     2.159666658435    -3.425359061178
C     -0.386529215546     0.987261792577    -2.664665587714
H     -0.914624873100     2.321923539696     0.318900123333
H     -0.584007506273     4.385627642934    -0.965060794750
H     -0.093770182793     4.298383213153    -3.384190540902
H     -0.006248729695     2.052647199888    -4.477340093267
O     -0.404609844119    -0.139071053443    -3.302042523684
H     -1.564604809455    -0.664028534384    -2.934542005835

