# STO-3G

title

0 1
C      2.715683371446    -1.631671976906     0.576858331328
C      2.466449525000    -2.737430596047     1.415785389560
C      3.540580797614    -3.397768043130     2.044852459329
C      4.863145600554    -2.962264230911     1.827257442267
C      5.112472330287    -1.868479990501     0.974518925457
C      4.038543646304    -1.203111825925     0.350622602988
H      1.892945771758    -1.115329087847     0.088253885804
H      1.448049605773    -3.091945431721     1.558003191713
H      3.348946414148    -4.253009189131     2.689502784268
H      5.691671796524    -3.478328134582     2.307540429951
H      6.133112970412    -1.539963490454     0.792132636429
H      4.230713794708    -0.359496579340    -0.309444400074
C      0.341178875662     2.651111079760     1.271207655902
H     -0.114147980407     2.572664690141     2.254370575477
H     -0.232430715989     3.181702680302     0.517108457422
C      1.668451240593     2.293256267699     1.032033074080
H      2.084124787406     2.474860919746     0.052337418588
C      2.641900493886     1.900212946025     2.064633284038
O      2.267681423901     1.749321049176     3.258172870339
O      3.977348509465     1.687893814780     1.686229849621
C      4.857130247262     1.229067491255     2.722410071635
H      5.877562872430     1.093111094376     2.304344079207
H      4.915616830489     1.970674758027     3.551101883335
H      4.515914338506     0.247243403487     3.123761071098
Pd     0.162989427025     0.681271920541     0.251159217875
C      0.310985273703     0.911437994068    -2.617808187168
O      0.816183126396     1.453844894414    -1.488403298700
O      0.654568852671     1.252347641214    -3.762824645972
C     -0.781808652765    -0.179241749165    -2.379893498933
H     -0.691556887905    -0.908737935718    -3.195490350523
C     -2.169515854336     0.428029805162    -2.405680736044
H     -2.936740783601    -0.366234993208    -2.310778114840
H     -2.289367939344     1.127065788366    -1.549505874851
H     -2.333659133205     0.976413986634    -3.356857439182
N     -0.597162042205    -0.765384158672    -1.039188067612
C     -0.897310048622    -1.965164463330    -0.654905805834
O     -0.836287604333    -2.338793786711     0.617021204081
C     -1.273697428619    -3.020021784297    -1.610180969103
H     -2.192009206269    -2.709428761951    -2.135599958682
H     -0.435227514468    -3.166052158646    -2.312144007363
H     -1.463981035675    -3.960514756930    -1.059996250657
N     -0.560397796017    -0.121509851696     2.035359799977
C      0.213493538989    -0.366317423697     3.144466980979
C     -0.358441547890    -0.374914603568     4.396369106316
C     -1.697307332679    -0.109952659049     4.573965415152
C     -2.461979720912     0.192879765658     3.480366805890
C     -1.877707564278     0.239440346166     2.192746651698
H      1.258873093371    -0.624626532083     3.027961579897
H      0.262379429477    -0.588138021719     5.251520977758
H     -2.135274358017    -0.120573507921     5.568572532260
H     -3.498945763261     0.449434659730     3.564511968666
O     -2.593072778439     0.614200008188     1.229360015192
H     -0.751115834375    -1.513815426989     1.244244571132

