# STO-3G

title

0 1
C      0.526935533385     1.246873310144    -2.086146535548
C      0.413681989509     2.101358790770    -3.199769200068
C      1.431875657291     2.125505867433    -4.173771514342
C      2.563615981439     1.297339375646    -4.030554902395
C      2.678754544219     0.448534981472    -2.911204069454
C      1.661756769915     0.423363112955    -1.935966821945
H     -0.261393589943     1.245558248913    -1.338722764923
H     -0.459697980467     2.742329235441    -3.296235432748
H      1.344326482274     2.784316450046    -5.035190255212
H      3.349438251320     1.315493824481    -4.782932228511
H      3.555384087113    -0.185391889487    -2.795180840227
H      1.754526203787    -0.216108751195    -1.060420018669
C     -0.434143981274     1.080148514315     2.659846545810
H      0.301265945182     0.339453646796     2.955895823285
H     -1.310922955176     1.191191169281     3.286764999819
C     -0.149348814284     2.019539157830     1.668923162708
H     -0.867476383465     2.795500067642     1.442722767325
C      1.178886344188     2.234206481051     1.063211467827
O      2.160915710328     1.538241878317     1.433477788549
O      1.353042599821     3.360677925245     0.241709685854
C      2.672932454190     3.559073667015    -0.283967598539
H      2.677731370403     4.460581377808    -0.932886924367
H      3.407860840106     3.712548923558     0.537960379491
H      2.988679276828     2.690710495484    -0.904131648241
Pd    -1.284162415686     0.194920353187     0.780430074787
C     -0.022785906672    -2.308104124920     0.527039824514
O      0.284833553938    -1.037668549012     0.868879255677
O      0.554506247590    -3.309859925677     0.985907199849
C     -1.135586141373    -2.448974556537    -0.563943193499
H     -1.766824283015    -3.295874829493    -0.262506459734
C     -0.473107734117    -2.757165701140    -1.900207377791
H     -1.210154361076    -3.086791483872    -2.654951100883
H      0.049139227620    -1.852860018370    -2.275517733962
H      0.269323877215    -3.575240666582    -1.782552354793
N     -1.898612229761    -1.171163277396    -0.669174657132
C     -2.790126511893    -0.852947019788    -1.576642369074
O     -3.131164586755     0.364018779338    -1.904691520539
C     -3.570027373898    -1.876695483148    -2.301458552616
H     -4.636659308103    -1.601374799364    -2.220272215178
H     -3.261630427786    -1.848203663235    -3.360512457644
H     -3.432023835786    -2.878491449193    -1.866271254224
N     -2.991191098589     1.340336274532     0.994003068902
C     -3.804176833741     1.157977861113     2.078760549686
C     -4.761206135880     2.101676933502     2.387825793732
C     -4.926003597423     3.221300724341     1.599858538485
C     -4.134868569311     3.362202960860     0.490237066431
C     -3.172674060457     2.373353216374     0.187505622368
H     -3.672492680244     0.288697445010     2.712531771722
H     -5.384541615140     1.960999071965     3.255908355103
H     -5.679619061537     3.965935322863     1.842477422654
H     -4.236652717394     4.187958733324    -0.185144292111
O     -2.510013452017     2.497316985077    -0.914344354069
H     -2.679975788436     1.269519648760    -1.499511429975

