# STO-3G

title

0 1
C     -2.126957485409    -1.301802012924     0.235382958946
C     -1.829755318392    -2.014513773620    -0.944593789281
C     -2.659902187330    -1.891077239320    -2.076065011369
C     -3.794326490473    -1.055395869023    -2.030857456051
C     -4.100308579826    -0.350922654296    -0.849724660342
C     -3.268299447084    -0.476260566519     0.280942282876
H     -1.467812166856    -1.412014776670     1.091425728225
H     -0.960524871502    -2.667403794565    -0.972961175774
H     -2.428457786817    -2.446662326762    -2.982384949061
H     -4.436851372442    -0.960554447517    -2.903498261326
H     -4.979657376676     0.288006366740    -0.809499498359
H     -3.519857786431     0.064810157001     1.191339933897
C     -0.884788198747     0.535801640605     3.039132099549
H     -0.941887912818    -0.496023197435     3.379648416020
H     -1.643401451738     0.855449340770     2.332945853677
C     -0.017510939724     1.466275425573     3.617812550528
H     -0.067717956245     2.493922214473     3.292126608119
C      0.771298923250     1.217446981670     4.836021960675
O      0.641849657119     0.132043200169     5.462122525753
O      1.708038510007     2.184289649559     5.239478538706
C      2.439329393191     1.885214264678     6.437167125720
H      3.143348105109     2.716665121568     6.656925640766
H      1.749036083819     1.776941097696     7.304650317026
H      3.029960752530     0.948505712767     6.318442556156
Pd     0.786015016448     0.680559805498     1.579550926501
C      0.441481819265     2.797304278620    -0.286776158340
O     -0.019990337795     2.389191365176     0.920458137106
O      0.495066330286     3.988488488361    -0.637218345733
C      0.805610162842     1.628460895909    -1.246447789999
H      1.588310132125     1.981766773466    -1.931589970889
C     -0.437298592659     1.257696792696    -2.041455865119
H     -0.248148198362     0.423924711658    -2.741561617532
H     -1.242116671306     0.941764172497    -1.344885048512
H     -0.793124432139     2.132982192212    -2.624688008000
N      1.217194284795     0.437539482766    -0.455520573707
C      1.723141608475    -0.660609934280    -0.961420284174
O      1.682079607002    -1.834158458072    -0.387937913081
C      2.482703764275    -0.626842333828    -2.230137187836
H      1.817285547091    -0.359231149121    -3.062821556036
H      3.296421743410     0.109355042503    -2.117660771677
H      2.917952805541    -1.625672485549    -2.422777115758
N      1.877193724611    -0.802971803095     2.497702552987
C      2.954023540320    -0.443302170699     3.261672520263
C      3.547866953238    -1.366932364964     4.096101320621
C      3.065754573716    -2.656431018836     4.171318176146
C      2.018327871403    -3.012176075861     3.362963397989
C      1.444079758728    -2.051275831008     2.501299528271
H      3.321666824632     0.575839378772     3.230106827696
H      4.381846683574    -1.069740328919     4.709119422487
H      3.522754356817    -3.382204386492     4.838446936745
H      1.624257450589    -4.007640164213     3.341269829669
O      0.533684570477    -2.456286829892     1.674676303452
H      1.046185298014    -2.035433082522     0.477709111322

