# STO-3G

title

0 1
C      0.712203435148    -0.345682862584    -2.504119973130
C      1.400182815339    -1.504201926254    -2.920242028580
C      1.152010429003    -2.044661080675    -4.197425228728
C      0.221946692164    -1.427739675498    -5.058208558212
C     -0.456191474825    -0.263187165469    -4.645714696165
C     -0.209967965751     0.277435859527    -3.368085399764
H      0.894795720456     0.062018878913    -1.514756007560
H      2.123542949889    -1.976205889181    -2.260236688334
H      1.683708403869    -2.937076024471    -4.519087126702
H      0.033675240681    -1.845059456831    -6.044981166845
H     -1.162438178404     0.222398968451    -5.315507473896
H     -0.716881264226     1.190080653642    -3.058007892205
C      2.309749447882     1.512229018785     1.592115539381
H      1.916864239011     2.140337964530     2.385107805031
H      3.022866469044     0.741679734958     1.868471274634
C      2.016924808559     1.722200440593     0.245023617839
H      2.495071746175     1.103415460764    -0.499743974971
C      1.297671886615     2.897358869937    -0.275363776000
O      0.899642962368     2.877774455104    -1.469841555929
O      0.992726870585     3.971344919564     0.577542491731
C      0.282601636039     5.066256095213    -0.016180718855
H      0.090967812525     5.839437887694     0.758620014686
H      0.881475647135     5.529108268727    -0.832620606023
H     -0.698568624987     4.730024188322    -0.419845914333
Pd     0.628860161959     0.084646610521     1.088337682354
C      1.755713653962    -2.504059204841     0.515475041736
O      2.097175520258    -1.207350688693     0.627989294148
O      2.543866250430    -3.401075499198     0.162214694005
C      0.261489503917    -2.841614385704     0.842123341073
H      0.291997477379    -3.738462541725     1.475858305534
C     -0.522160619212    -3.161930618667    -0.413744663718
H     -1.534680027194    -3.527284625432    -0.151928560633
H     -0.630962821153    -2.250453294540    -1.033845301358
H     -0.001579015167    -3.944866668071    -1.004932901499
N     -0.398042125413    -1.687370522438     1.489459881040
C     -1.312734642814    -1.733444102197     2.410256276977
O     -1.879657904594    -0.650886765547     2.923958656239
C     -1.795971960597    -3.005754292822     2.974944043459
H     -2.210711885883    -3.624633847535     2.162862498759
H     -0.951405220392    -3.506476363536     3.477918955832
H     -2.588322266038    -2.799423136044     3.719538017167
N     -0.917015222216     1.402435231149     1.419428044545
C     -1.792030110778     1.588715627637     0.380474461134
C     -2.686468401953     2.633651592397     0.412452242357
C     -2.711435557690     3.516019143152     1.469584891895
C     -1.805148488999     3.359843652232     2.482748642137
C     -0.857929652134     2.307275463926     2.444506873882
H     -1.804571028978     0.886615647154    -0.445571772730
H     -3.383173202434     2.755177937314    -0.401104530146
H     -3.427087589825     4.333572872808     1.490836416818
H     -1.755876140848     4.035119940311     3.313264680088
O     -0.024726493454     2.227696586009     3.383870787414
H     -1.538493931652     0.210719927242     2.501295581283

