# STO-3G

title

0 1
C      2.288608959596    -2.025496068659     0.402516252921
C      2.105275961127    -3.221810502850     1.126888214496
C      3.034205846736    -3.591900086275     2.119714381330
C      4.145262258371    -2.765100407682     2.386889767943
C      4.331108291943    -1.574107229711     1.656125601294
C      3.406080273810    -1.204049023243     0.659242141984
H      1.572288490777    -1.747286225690    -0.364327367223
H      1.246283528464    -3.856916493408     0.919289896149
H      2.898153708676    -4.517882681739     2.674496443463
H      4.865255418949    -3.052544048982     3.150258882842
H      5.192125534661    -0.940152406568     1.856110877359
H      3.550900194429    -0.292877720538     0.084746133082
C      0.014064406609     2.353740010998     1.711279992910
H     -0.145354077420     3.038448676157     0.883316124971
H     -0.851294513860     2.131302175941     2.328167428321
C      1.305319838181     1.960908344935     2.096777455097
H      1.438403763415     1.439293736748     3.030734045178
C      2.544869269048     2.503657380500     1.511608562540
O      2.508021479229     3.579962388060     0.856995484428
O      3.768496388403     1.935057550275     1.907383578181
C      4.936039602683     2.476505931256     1.273755185816
H      5.838038528182     1.943097958525     1.642166867088
H      4.880385705452     2.346548887591     0.168228302498
H      5.050188085591     3.558698773746     1.511536747352
Pd     0.302393046437     0.415719312301     0.711879823948
C      1.266751349165     0.707330439455    -1.988643697724
O      1.359563166071     1.254369441310    -0.757774073119
O      2.140173493306     0.840453128694    -2.865067736930
C     -0.057624504852    -0.060414593927    -2.241850873511
H      0.158558363075    -0.843500934407    -2.982051095552
C     -1.091995523002     0.893129949551    -2.814320942952
H     -2.039318747667     0.365838240614    -3.038311939131
H     -1.302569613589     1.695722802930    -2.075778817470
H     -0.711624100532     1.353144404701    -3.751018285224
N     -0.596154055018    -0.582864213974    -0.959605810829
C     -1.523170216875    -1.506908763191    -0.875263514026
O     -2.280333633987    -1.697333898942     0.170237793261
C     -1.729266769295    -2.478498467896    -1.971780219888
H     -2.086752352888    -1.952407854939    -2.870092092701
H     -0.770582660353    -2.991633101437    -2.158390350665
H     -2.487725799390    -3.222590175866    -1.662677120850
N     -0.380845843686    -0.526895353362     2.419130212932
C      0.560402885605    -1.050116709892     3.266217908928
C      0.200114559563    -1.450750653237     4.535491363286
C     -1.106444632317    -1.352731150910     4.959655374005
C     -2.041276542301    -0.865268978712     4.085679503138
C     -1.649744932205    -0.477095806128     2.784032859436
H      1.597934774119    -1.094140653183     2.964281428815
H      0.954720353389    -1.839785581192     5.199389205201
H     -1.391620677864    -1.668642379509     5.959613567028
H     -3.079907463959    -0.797727494213     4.339646108429
O     -2.588749031110    -0.114474328873     1.972676582586
H     -2.416002385554    -0.879838313344     0.908383653407

