# STO-3G

title

0 1
C     -1.249264927520     0.221859299332     1.266118567940
C     -2.061477905504    -0.917228067751     1.432968412082
C     -3.181226970024    -0.860021516723     2.285871608417
C     -3.485030055059     0.333188056511     2.973047277174
C     -2.667488829489     1.469553403374     2.809429440106
C     -1.547190985548     1.414475660456     1.955603111846
H     -0.390549444623     0.160491170143     0.604310622102
H     -1.800243752005    -1.830434301057     0.905703668356
H     -3.810927462124    -1.737526308393     2.415684809224
H     -4.349525733072     0.376734989237     3.632200143944
H     -2.899932227873     2.388466559265     3.343251751812
H     -0.915327569550     2.291691763717     1.829549728506
C      3.495929362070     0.790596179791     0.956930984762
H      4.312655184387     0.095203333106     0.791937148343
H      3.671316732655     1.839172739962     0.745719471503
C      2.358453319505     0.414478414678     1.673812118070
H      1.644321483486     1.166319897041     1.975326464417
C      2.144422885848    -0.918651909443     2.265886237750
O      3.011416649533    -1.821216098402     2.116811624077
O      0.992012997352    -1.133210965144     3.035109725478
C      0.702962251582    -2.498159405488     3.362672947900
H     -0.241112754360    -2.539526427403     3.947547343831
H      0.560281003821    -3.101490174200     2.436930238336
H      1.518246415143    -2.941317658881     3.977839186601
Pd     1.822181362952     0.551885876332    -0.555594022525
C      1.197064651950     3.244754628374    -1.253378923109
O      1.618820129538     2.512966629014    -0.196122335829
O      1.470419325623     4.447080834202    -1.412557953276
C      0.247623243021     2.477179612707    -2.216253204182
H      0.409838447083     2.873661156020    -3.228247147135
C     -1.189976146063     2.742640906751    -1.796615224348
H     -1.912492225046     2.261563867179    -2.480782108859
H     -1.359930880868     2.337155913382    -0.778226671501
H     -1.391298121472     3.834888603659    -1.787979732883
N      0.490861398452     1.012883533120    -2.116125396607
C     -0.024094092161     0.120597772327    -2.929712978831
O     -0.187138030386    -1.140062011666    -2.637967404416
C     -0.388392036237     0.479339675370    -4.318062812919
H     -1.226385607878     1.190413967390    -4.318563405365
H      0.503549745345     0.910618087233    -4.802904289656
H     -0.693039481407    -0.434237260673    -4.863229735541
N      2.349958578439    -1.406508828617    -0.928596256336
C      3.653899661689    -1.676100668968    -1.246730564204
C      4.114816550747    -2.975696108732    -1.243635601654
C      3.274723212881    -4.017433383901    -0.916117716463
C      1.962189124375    -3.737868975310    -0.643963949091
C      1.513418051525    -2.398460788378    -0.671982068823
H      4.328553859305    -0.864378174292    -1.491312192571
H      5.148154910564    -3.173256602971    -1.474991074280
H      3.639887087097    -5.040626474915    -0.897043126750
H      1.249796391419    -4.504266478212    -0.418773492964
O      0.249186936090    -2.194943644048    -0.489713518684
H     -0.079705391922    -1.500256006906    -1.610798494630

