# STO-3G

title

0 1
C      2.459497689040    -0.987973454295     1.792466151958
C      1.450566897995    -0.769437752642     2.753257489989
C      1.748187515459    -0.077313921580     3.944692647202
C      3.055307750238     0.397018516837     4.177281888259
C      4.065634202293     0.173662809216     3.219287573886
C      3.767285187586    -0.519517955316     2.029103008833
H      2.247141311540    -1.512851188869     0.864328269789
H      0.442948254296    -1.134163989250     2.575592707377
H      0.967457873653     0.085875130061     4.684016960433
H      3.286522856868     0.927782757678     5.098453173648
H      5.076433090985     0.533299971704     3.399180399081
H      4.539783182720    -0.691224926359     1.283707055651
C     -0.309662403849    -2.428206640345    -2.014028749104
H     -1.385820883912    -2.371914342265    -2.147144888071
H      0.309205009105    -2.327128755012    -2.898917632780
C      0.258266850226    -2.876017618241    -0.823783714747
H      1.330635666077    -3.005971066847    -0.769523537819
C     -0.519013898920    -3.372153679954     0.327377023741
O     -1.738131298388    -3.660716911561     0.180231756180
O      0.165507031797    -3.683387796804     1.514167516155
C     -0.654549538640    -4.092466366740     2.616917046891
H     -0.010288745405    -4.285318499383     3.501334362422
H     -1.383044011059    -3.292552464462     2.883520357559
H     -1.205568463325    -5.029173717379     2.374320720343
Pd     0.293252191391    -0.533368248913    -0.918155468312
C     -1.478506383748     0.499136182411     1.099451796738
O     -1.161482139222    -0.643276731931     0.461093469986
O     -2.325776746751     0.579461644030     2.006888586411
C     -0.701517943177     1.764920847126     0.605271548270
H     -0.532603781904     2.387690164040     1.492613825054
C     -1.514452233095     2.553417221483    -0.397984703765
H     -0.950275514325     3.453970845895    -0.715936962031
H     -1.721604781634     1.924473077212    -1.287910938150
H     -2.476633976885     2.870972607911     0.056693420366
N      0.538277582072     1.347387721698    -0.079088355949
C      1.718404987710     1.876521311314     0.048463354749
O      2.781214594352     1.448343676924    -0.617114548737
C      1.976993305249     2.991334808854     0.973507141119
H      1.322115057794     3.837532428363     0.707735318552
H      1.789724338329     2.628717423312     2.000135135322
H      3.036829592313     3.297698932681     0.891455520681
N      1.756798808797    -0.309416541820    -2.370290428908
C      1.407411327465     0.443873416537    -3.461771799079
C      2.095386655631     0.305323389156    -4.645074926221
C      3.141441777849    -0.583177714962    -4.760089660044
C      3.470953454038    -1.357084948370    -3.680861280985
C      2.745996011721    -1.245984201719    -2.470546937039
H      0.606221955755     1.169635383981    -3.380315643625
H      1.820666377048     0.915590227463    -5.490472414576
H      3.687918814244    -0.677652894290    -5.694995276220
H      4.258371937975    -2.083838546647    -3.720568362690
O      3.053409231960    -2.022768495626    -1.527855053633
H      2.562655035700     0.673591297763    -1.245474537864

