# STO-3G

title

0 1
C      1.884337287930    -0.712504678092     2.233111082854
C      0.849397237285    -0.612672641338     3.185095223842
C      1.139852854108    -0.785478437860     4.553372932668
C      2.458315873615    -1.062354881793     4.967182332493
C      3.489991316271    -1.166365440710     4.012054074987
C      3.202803604709    -0.990293430813     2.643968215899
H      1.667159505870    -0.590925130693     1.175727388152
H     -0.169487101914    -0.423446504323     2.858641255260
H      0.341662384434    -0.707869548845     5.288354790387
H      2.680382015198    -1.195552609138     6.024007133868
H      4.508226220790    -1.380028748442     4.330123591590
H      3.992906227882    -1.068395597936     1.900572613595
C     -0.835879136802    -2.138764277613    -1.605593544922
H     -1.814020865440    -2.086942002703    -1.137937696990
H     -0.790310042381    -2.055447237266    -2.684948964798
C      0.281414298982    -2.552687022125    -0.883557691150
H      1.234520689945    -2.674847756334    -1.380327024719
C      0.237737267333    -3.099126877311     0.486891214261
O     -0.872760986039    -3.286861366751     1.051087348085
O      1.422726617492    -3.634226704653     1.019038524112
C      1.319598152735    -4.209904997750     2.329068824819
H      2.321472240172    -4.561286656505     2.655520211742
H      0.965159479234    -3.456535867893     3.067898994339
H      0.624014233084    -5.078901552183     2.326105725189
Pd     0.173236533993    -0.231297790816    -0.969046424783
C     -1.506004191472     1.165224852226     0.855589541204
O     -1.149015318743    -0.100125061207     0.538457181668
O     -2.407788298412     1.457263951850     1.660316302754
C     -0.675669070095     2.273424259692     0.112296024807
H     -0.574297338572     3.110017945714     0.814660211867
C     -1.381835492366     2.766865033420    -1.130019173581
H     -0.771162935187     3.555602532520    -1.615842160799
H     -1.517189975364     1.929251798421    -1.843343756228
H     -2.374277685723     3.187356613097    -0.863128704862
N      0.599625256950     1.669560942804    -0.320752261356
C      1.811442983187     2.064462452050    -0.022018675875
O      2.906310838881     1.388098155963    -0.242302853359
C      2.027295447106     3.372202019196     0.626824270127
H      1.557432344233     4.154312328774     0.006985033392
H      1.595966064456     3.331575033504     1.641438825587
H      3.113512037672     3.567524434320     0.707404863764
N      1.357715756481    -0.290648202437    -2.645856728440
C      0.815562498978    -0.088075944558    -3.884822125670
C      1.565741110886    -0.339921733877    -5.013998027670
C      2.869414170540    -0.776491479885    -4.909062655084
C      3.408270636041    -0.932065221884    -3.659133924522
C      2.624129928189    -0.650300318647    -2.518071953700
H     -0.213575106781     0.238954999201    -3.976775965351
H      1.125853628523    -0.195677020106    -5.987381898424
H      3.461899017460    -0.977216834963    -5.797841880238
H      4.424436501123    -1.237007771717    -3.507709331673
O      3.199260781367    -0.741827361102    -1.366075873404
H      2.959981165092     0.373549779637    -0.661605029392

