# STO-3G

title

0 1
C     -2.863792568156    -1.290123110236    -0.324875459121
C     -3.571734892515    -0.838984747436    -1.456707950940
C     -4.954140606727    -1.090660019008    -1.561628819609
C     -5.624668757957    -1.790062796926    -0.537316180032
C     -4.913753239043    -2.237164891764     0.594649528172
C     -3.530630612006    -1.986867812733     0.702321641067
H     -1.798324210888    -1.098803903768    -0.246267472812
H     -3.043395808630    -0.297765560858    -2.237951590517
H     -5.503332504518    -0.745602457517    -2.435069713586
H     -6.691840801971    -1.984726665779    -0.620900427744
H     -5.431463199247    -2.775650741921     1.385263162929
H     -2.977810215909    -2.324905349217     1.575734406340
C     -1.492566932098     1.587684189190     0.885344916784
H     -1.725057359169     2.052083520099    -0.069915424626
H     -2.139307673009     0.769673184261     1.183404225649
C     -0.535793946674     2.095903492294     1.761084777278
H     -0.414016444106     1.622828674813     2.724162407293
C      0.159837093356     3.381734097356     1.585931090087
O     -0.131694846163     4.132937964460     0.618335588786
O      1.227028411389     3.686421082850     2.448160825140
C      1.865670436730     4.952662240441     2.229081782850
H      2.684044846720     5.086631780492     2.969121854903
H      2.305894209571     5.004636521947     1.207267538310
H      1.140721822337     5.788406449613     2.359431335949
Pd     0.343327480532     0.316852675017     0.563975242659
C      0.581381220687    -1.865326019230     2.384607934481
O      0.461544690169    -2.620439099387     3.362553544466
O     -0.178479224448    -0.765518184030     2.184785225258
C      1.655320394460    -2.118665407866     1.263916750381
H      1.804047634560    -3.204113435427     1.208115002246
C      2.978164163133    -1.465432615810     1.593051272955
H      3.707171903466    -1.676051978454     0.783473873550
H      2.847316214038    -0.367737094596     1.678584112787
H      3.372570590211    -1.864677103299     2.551151922436
N      1.156216756462    -1.493462110552     0.024541579553
C      0.866981819003    -2.087604812673    -1.107223046201
O      0.190102658843    -1.559340043743    -2.088833667498
C      1.316356789916    -3.472119617726    -1.352889685125
H      2.409233463343    -3.516177088191    -1.208265228662
H      0.779880934179    -4.143004046263    -0.661173734114
H      1.070825318576    -3.758245797065    -2.393384973837
N      1.007671514179     1.482257102738    -0.979047207158
C      2.083744741561     2.309689277496    -0.811270366672
C      2.400638869503     3.235916974199    -1.782325312320
C      1.636732670532     3.343194176010    -2.924786504725
C      0.585487308937     2.480878230964    -3.093073529242
C      0.296861231585     1.526289017130    -2.092390211688
H      2.673518609124     2.249939978513     0.095983660309
H      3.238012457348     3.896547987936    -1.633727081869
H      1.874078991538     4.083227653049    -3.684246029740
H     -0.028537460681     2.492375059498    -3.970473166727
O     -0.658043777383     0.688157112560    -2.336505413933
H     -0.263803848077    -0.542072849032    -2.097107425347

