# STO-3G

title

0 1
C      2.593167474239    -2.061635133610     0.836555659387
C      2.118382752600    -3.283343196517     1.359124356199
C      2.845558669684    -3.946517966142     2.367685119267
C      4.048306525654    -3.394258906069     2.852318623045
C      4.531107388852    -2.182941354202     2.317706772641
C      3.805869958333    -1.519957101616     1.307756494222
H      2.033386121123    -1.538713167336     0.065000809327
H      1.191572617597    -3.708252664020     0.982564912170
H      2.481098529631    -4.890866303958     2.766683257135
H      4.610647603054    -3.909138609581     3.628349913140
H      5.468820002016    -1.763467774586     2.675832427159
H      4.192427694339    -0.599469760357     0.877208140796
C      0.373684587513     2.240179835851     2.098201821573
H      0.036457814186     3.108179738023     1.538746354509
H     -0.319810100450     1.846362880491     2.832773442780
C      1.695250532957     1.796179286041     2.025482886495
H      2.049208901025     1.012152823893     2.677565057738
C      2.759112502766     2.517975009020     1.299172827288
O      2.574241468730     3.714751236049     0.951035457868
O      4.035524553729     1.932928148916     1.238197840312
C      5.009071117954     2.652838714537     0.468579421435
H      5.968580948918     2.092897190545     0.467328799340
H      4.670457660858     2.766818644802    -0.587434248352
H      5.194560849677     3.660469594168     0.905690683852
Pd     0.338805873699     0.582196551084     0.602761256766
C      0.792883887711     1.354187132742    -2.125777434557
O      1.316433321081     1.831715025579    -3.145483990069
O      1.193320888209     1.645806260323    -0.871924178557
C     -0.407447817250     0.359648549369    -2.204630636221
H     -0.322963360329    -0.176859201034    -3.158359658367
C     -1.732223189605     1.092368139768    -2.157769577149
H     -2.569396399354     0.375837076988    -2.278113389610
H     -1.849101334931     1.597654456168    -1.174768119794
H     -1.783020392748     1.847893888327    -2.969572200890
N     -0.362409639704    -0.518851462257    -1.020801889410
C     -0.761772478224    -1.747746561318    -0.939099067099
O     -0.797641769357    -2.410080954164     0.210499383550
C     -1.155761978980    -2.521817999859    -2.127743586244
H     -2.018165909941    -2.023715247686    -2.601660807175
H     -0.291639442690    -2.572188196800    -2.811654093444
H     -1.444986840094    -3.544071478485    -1.819996737812
N     -0.530776056339    -0.572017555340     2.118778023507
C      0.162691473721    -1.061234935117     3.199707197165
C     -0.496397189516    -1.336371422601     4.375715925322
C     -1.851532108215    -1.127898600656     4.502041615188
C     -2.539133926682    -0.595284088060     3.445949508284
C     -1.865054435721    -0.267419996546     2.245970496503
H      1.223205449688    -1.261405083606     3.121533527289
H      0.059846450463    -1.741314043959     5.206160060095
H     -2.362969801059    -1.362874091069     5.431976318058
H     -3.586696594995    -0.374481058818     3.501926898198
O     -2.517937772770     0.299694030479     1.334471379953
H     -0.692137808556    -1.769237242129     1.016443243848

