# STO-3G

title

0 1
C      1.335725681600    -3.615663796136     1.113569083167
C      0.460713789469    -4.611285359987     0.631570863027
C      0.382215858302    -5.855924481779     1.289327275800
C      1.180034106903    -6.107530223011     2.423638880444
C      2.061958064928    -5.115053770280     2.898553873345
C      2.140809953734    -3.870674890920     2.242537076637
H      1.399333584863    -2.656458677356     0.607512152876
H     -0.144498964151    -4.420706011949    -0.250078307651
H     -0.291453995793    -6.623320997403     0.914723813147
H      1.120962025390    -7.069493018783     2.928661887161
H      2.683869630664    -5.309557920564     3.769678457691
H      2.814179501635    -3.097328044719     2.603015053182
C      0.631351244579     1.789726202303     1.782611332837
H      1.531666487981     2.164957175369     1.310023119865
H      0.748342955760     1.352499505531     2.766819575917
C     -0.640417108707     2.037846076369     1.266817385847
H     -1.500698455825     1.757822280779     1.856917277763
C     -0.933945771609     2.846372594490     0.071301977459
O      0.003717988932     3.215653640644    -0.683100045064
O     -2.278370528167     3.010048543493    -0.302186487316
C     -2.506798005526     3.714777735814    -1.531116467234
H     -3.600243645626     3.788675519413    -1.716892341640
H     -2.092706745113     4.747522269085    -1.479291801738
H     -2.045893814601     3.174659042322    -2.389557529577
Pd     0.015797123708     0.021222293520     0.442965202697
C     -1.724203196308    -2.123451798911    -0.334633904831
O     -2.325539907168    -2.995956878811    -0.983632950233
O     -0.590393988291    -1.520689335670    -0.754038297714
C     -2.262758818849    -1.645586541639     1.073443277385
H     -2.648530608628    -2.532956914060     1.590518828482
C     -3.376589045906    -0.634538697754     0.933808472754
H     -3.701876181230    -0.296843341077     1.939241999515
H     -3.023406134366     0.242619573664     0.354238568306
H     -4.239660269912    -1.092874941288     0.406879350085
N     -1.146016177576    -0.982911340660     1.755107926931
C     -0.459000952749    -1.396061970533     2.793528499384
O      0.751490958948    -0.965035988480     3.092158731304
C     -1.037907090756    -2.374975605456     3.727825766704
H     -2.023994457412    -2.006658149626     4.057619980864
H     -1.113884918298    -3.345257199407     3.205823477328
H     -0.364982391628    -2.489499704598     4.598062015800
N      1.769018615102     0.382248051955    -0.543297406087
C      2.021809699332     0.789988190598    -1.820926024257
C      3.319985355764     0.798501879487    -2.288974559881
C      4.362482041525     0.396622246195    -1.481031987373
C      4.084682736620    -0.014922844894    -0.202540934307
C      2.747715274652    -0.024207134491     0.255518412163
H      1.206140470687     1.112810047780    -2.457433873217
H      3.514322789137     1.124339977369    -3.297092306920
H      5.383959215334     0.402496554964    -1.851516560387
H      4.850290767728    -0.349775689197     0.467035454480
O      2.559491013153    -0.447950562377     1.465462136226
H      1.482540495898    -0.697554523763     2.320279058231

