# STO-3G

title

0 1
C      2.217260652918    -2.802191813846     1.967939167459
C      1.530360863568    -3.768529466658     1.194037112452
C      1.268664522001    -5.045890890169     1.726528477993
C      1.696125093283    -5.369647225123     3.031528873143
C      2.390673250776    -4.417311856882     3.803493552456
C      2.653072595800    -3.138417663747     3.270749453755
H      2.474887810573    -1.830295510400     1.544685662129
H      1.214393413279    -3.525050348967     0.182722047163
H      0.746487716997    -5.785794341242     1.124690642276
H      1.496589715657    -6.358126195945     3.439036452852
H      2.729248978525    -4.669393059007     4.805554917958
H      3.210092660293    -2.408431175946     3.854128243570
C      0.766267439207     0.603526814926     2.300557267352
H      1.822773524855     0.741875754787     2.096569777759
H      0.504532659608     0.006746280342     3.166758754394
C     -0.234119787263     1.290146395236     1.611625711526
H     -1.263229701350     1.170696887450     1.921182381203
C      0.002391429627     2.386630053565     0.656676002425
O      1.119599848156     2.964341205905     0.612124367744
O     -1.067466251041     2.795303272289    -0.158966262943
C     -0.763612170033     3.826430708559    -1.109578285009
H     -1.671935412562     4.061991910842    -1.704723766801
H     -0.435561139138     4.757195885059    -0.592710443179
H      0.037483106457     3.495233599564    -1.810141668358
Pd     0.033438321818    -0.683146165500     0.513792585667
C     -1.868925848763    -2.362382078497    -0.817994784477
O     -2.488682156478    -3.079043721066    -1.621637320177
O     -0.597906256018    -1.955184739012    -0.972009785548
C     -2.577126181293    -1.837205356538     0.490644641793
H     -3.332658648045    -2.581802812864     0.767589297462
C     -3.256495674782    -0.506145150095     0.257608468575
H     -3.700100404352    -0.138559797432     1.205548947047
H     -2.523690947305     0.239386150693    -0.113673743821
H     -4.062474937996    -0.621550051484    -0.497440605147
N     -1.524706355294    -1.628029028297     1.505554262879
C     -1.489164494765    -2.123716613188     2.697770894681
O     -0.397120466954    -2.104570015896     3.476978687666
C     -2.676342174394    -2.720160900524     3.331150654810
H     -3.502383578782    -1.989403415041     3.288159805548
H     -2.929507668450    -3.651926362724     2.797339687632
H     -2.449530769348    -2.960042017927     4.387428009863
N      1.391506356289     0.093717532572    -0.741202570783
C      0.977658676959     0.348503225551    -2.019556912632
C      1.877932221899     0.801069191095    -2.958525773907
C      3.203624094159     0.978033419719    -2.633128528543
C      3.614525342829     0.686664958279    -1.360742129745
C      2.686019425725     0.222614712404    -0.394243354669
H     -0.066586086994     0.233396438379    -2.284734349553
H      1.538268468336     1.009906573412    -3.958783369061
H      3.913596656106     1.332157829729    -3.375342300157
H      4.634757621562     0.790418007126    -1.053891637770
O      3.148262525336    -0.069162611447     0.754120227861
H      0.469770595946    -2.124161541753     2.984539397676

