# STO-3G

title

0 1
C      2.492530806306    -0.413744639700    -1.382940719612
C      2.456775246175    -1.315304186139    -2.465859568252
C      3.612382355561    -1.513703128599    -3.248123284791
C      4.797150911956    -0.811537701712    -2.948273406226
C      4.828547678019     0.090298700961    -1.864998689573
C      3.675116185716     0.289124664484    -1.080458115425
H      1.608167892871    -0.260177094489    -0.772684254719
H      1.538806175157    -1.851276668800    -2.694493779274
H      3.588229451883    -2.210472186218    -4.082926293868
H      5.688654508224    -0.966156220432    -3.552457641493
H      5.743552068091     0.631029418239    -1.632887186035
H      3.690600894618     0.980029849552    -0.240682231448
C     -0.401077680731     1.403737235509    -1.848263167046
H      0.139265784681     2.203284585784    -1.347308629482
H      0.202761380133     0.700992625337    -2.412023983816
C     -1.791652259628     1.347547739583    -1.905261807120
H     -2.260549374225     0.565580602455    -2.485065559199
C     -2.678530830078     2.425853844435    -1.441689137870
O     -3.915533374637     2.200553373354    -1.372421185795
O     -2.129586286309     3.641643677199    -0.997165820992
C     -3.067784286465     4.639282975395    -0.571939907873
H     -2.514328902402     5.544086407574    -0.240413986197
H     -3.742618833255     4.929383155020    -1.408695070735
H     -3.676024151960     4.273493811581     0.285156585188
Pd    -1.016097981229    -0.057485540487    -0.241447998000
C     -1.070160031121    -2.748351199344    -1.184795777312
O     -1.099410843273    -3.759689243761    -1.904110388776
O     -0.962149826509    -1.488418275310    -1.663483854285
C     -1.154554442693    -2.836614419610     0.383001893638
H     -0.721123353008    -3.802466659513     0.670378028292
C     -2.582401133628    -2.780994197521     0.875771144677
H     -2.595461777436    -2.851052221115     1.983079025846
H     -3.050791855118    -1.822473152984     0.573314834637
H     -3.165466211869    -3.624888374662     0.450628451353
N     -0.459324642889    -1.654242852582     0.926201501636
C      0.620891927946    -1.634626913357     1.667884974617
O      1.356593885817    -0.584148217551     1.909012774446
C      1.099599788389    -2.873596066296     2.311388492075
H      0.276318851904    -3.296976783224     2.911553459009
H      1.437726305962    -3.568474554967     1.524245378580
H      1.954562372021    -2.637127557570     2.972995614048
N     -1.253275639455     1.365537738721     1.205930974302
C     -2.497423736979     1.666089342513     1.688762268593
C     -2.663821803848     2.736203320691     2.543233995350
C     -1.586266059930     3.510663989624     2.916806966823
C     -0.343637328518     3.173340820607     2.448734398941
C     -0.196031230409     2.054571586627     1.598154556264
H     -3.353545809697     1.077792107767     1.379190949088
H     -3.649251600849     2.972134795458     2.909796867430
H     -1.716458932961     4.359166598835     3.583060859688
H      0.538962366957     3.712071900185     2.728293161089
O      1.008387823934     1.721383054954     1.263086231789
H      1.198601233838     0.433740604530     1.493565430489

