# STO-3G

title

0 1
C     -0.053869990774     0.614060586126    -2.810543176798
C     -0.098979956696    -0.647407535106    -3.439863934162
C     -1.195922922387    -0.990652166269    -4.254382116218
C     -2.243332714552    -0.068735664569    -4.453922297989
C     -2.186695978397     1.202591307034    -3.848479846852
C     -1.091108917837     1.544070372737    -3.030720688677
H      0.796761795398     0.858937473018    -2.181553242450
H      0.722838691869    -1.346190181125    -3.299677759607
H     -1.227770472815    -1.963643501602    -4.739881151005
H     -3.086371189666    -0.331958650542    -5.089335083134
H     -2.981285185403     1.924760427891    -4.025272454332
H     -1.043738306645     2.535299921136    -2.583486446787
C      0.489591067480     2.673004465069    -0.064210498289
H      0.987676617744     2.663257815899    -1.027301195662
H     -0.533482437011     3.031334433704    -0.033978219723
C      1.196591821615     2.492320640461     1.121032476906
H      0.702756346553     2.620775961318     2.076335935545
C      2.655861580631     2.291198210026     1.184879013467
O      3.189070308082     2.070332654670     2.303796484430
O      3.431154986254     2.457955061027     0.023163734310
C      4.808407408004     2.075143785513     0.133810745855
H      5.313579561611     2.234491406367    -0.842754462478
H      5.331310761961     2.687468519132     0.902923262186
H      4.894594008914     0.995110548548     0.393460338625
Pd     0.203533062382     0.481295211052     0.611804070723
C      1.916838869578    -1.505881064304    -0.437727132447
O      2.712147162972    -2.061085439180    -1.215493942544
O      1.940980533082    -0.182406863490    -0.165662700755
C      0.788774274389    -2.315659186599     0.302413067510
H      1.271449727527    -3.220156069907     0.696657465150
C     -0.323852880767    -2.731930816861    -0.631779463600
H     -1.050564368736    -3.365248833739    -0.082948571608
H     -0.855601992999    -1.834494370588    -1.007459051841
H      0.086722426884    -3.307490550086    -1.487726594009
N      0.194050037006    -1.437411736015     1.319830430786
C      0.089142080295    -1.646512515124     2.610144387843
O     -0.238335231757    -0.753545370243     3.500681858109
C      0.349505907156    -2.992424105607     3.159477365868
H     -0.298368219515    -3.715292204817     2.635422053250
H      1.419309398304    -3.223487168365     3.025477151299
H      0.111876743333    -2.999211155167     4.240228549016
N     -1.704947993938     1.016342544738     1.114243126235
C     -2.664376063866     0.983918809799     0.140149290340
C     -3.891404066960     1.570576924262     0.367871322172
C     -4.171335649888     2.166765606836     1.579682393193
C     -3.209886803027     2.146738105480     2.556444098030
C     -1.966137477316     1.527730833079     2.300838461983
H     -2.451793149206     0.516457384910    -0.813104056709
H     -4.638083872989     1.554800209785    -0.409206471895
H     -5.138716068523     2.627164222536     1.762399525812
H     -3.373454928708     2.563350122593     3.530168545022
O     -1.116606984121     1.480238527200     3.275391618547
H     -0.535512000418     0.326127926705     3.336699384592

