# STO-3G

title

0 1
C      2.172305323254    -0.432173888513     0.553946395878
C      2.667168348701    -1.272987605533    -0.462984227685
C      4.033757312043    -1.618059769713    -0.479613659365
C      4.899991225302    -1.121728455655     0.515452637940
C      4.401257597321    -0.278691495207     1.529508853225
C      3.035303210344     0.065879856342     1.549525665141
H      1.120386152438    -0.165146109068     0.575702445848
H      1.993647274010    -1.648287933261    -1.229255094192
H      4.418802632243    -2.268459058244    -1.261745668975
H      5.954464616747    -1.389145361709     0.500903261015
H      5.069846825471     0.104735210109     2.296993039349
H      2.639628516718     0.717253562378     2.325077266266
C     -0.880056203820     1.974129482115    -2.034112024776
H     -1.567141659758     2.809922681953    -1.942971632752
H     -1.052819745322     1.258205469380    -2.830259099136
C      0.324114894707     1.945560545030    -1.334027100746
H      1.052676066343     1.177514872434    -1.548675157000
C      0.795275212811     3.016489526600    -0.436142453835
O      0.081365067335     4.039018013439    -0.250930412403
O      2.066813213417     2.897779177902     0.144384195751
C      2.384314962322     3.861045303189     1.157232440076
H      3.403714227345     3.656295818494     1.548783318751
H      2.369147125693     4.894158753271     0.742471047339
H      1.666631181406     3.787693596793     2.006382887693
Pd    -1.191336085421     0.504867732233    -0.339790751291
C     -1.159819116599    -2.073327118970    -1.553986303092
O     -0.987708544666    -3.012506613701    -2.347524917183
O     -0.554664497872    -0.870256789411    -1.673547353773
C     -2.116708007159    -2.191431856335    -0.314591365976
H     -2.082551890639    -3.239499377745     0.007826981590
C     -3.544884192836    -1.843685480838    -0.668059296667
H     -4.187073202938    -1.959848474816     0.229407777269
H     -3.604010716112    -0.792350902050    -1.014007938447
H     -3.914622880251    -2.517555189828    -1.469436315796
N     -1.665919609414    -1.212841487834     0.694172998143
C     -1.245365364537    -1.467189164731     1.910332476396
O     -0.643146884168    -0.620559887610     2.694536832054
C     -1.442500696179    -2.807081339454     2.499051611474
H     -1.108143115042    -2.791780532771     3.553374741012
H     -2.517332307796    -3.050887928285     2.458557529543
H     -0.829911488441    -3.536152656525     1.940560991115
N     -1.997268324095     1.919624309426     0.899510335059
C     -3.155500648165     2.541503583652     0.521491273393
C     -3.627656675924     3.620485287863     1.238146651782
C     -2.938687846924     4.088528482718     2.336103800038
C     -1.796070158883     3.437070484354     2.717798229467
C     -1.341087757017     2.326978225484     1.971406565448
H     -3.695223485491     2.191262069087    -0.350373084443
H     -4.532414471750     4.113308188684     0.923283029923
H     -3.300304694524     4.947917563337     2.894185646563
H     -1.222834711954     3.741318227849     3.569204163413
O     -0.275916398918     1.733210096367     2.401241723133
H     -0.406486421829     0.452141090672     2.455610610583

