# STO-3G

title

0 1
C      0.361495861605    -0.681200237031     4.265102603759
C     -0.181359541148    -1.787421228545     4.948374722189
C     -0.229792535685    -1.783329845235     6.356628454721
C      0.262872296871    -0.675466554960     7.076441255417
C      0.802001187306     0.430775208793     6.388965341620
C      0.851103484440     0.429953607519     4.980171496228
H      0.400479786912    -0.688376528498     3.180496817644
H     -0.561620798788    -2.632657530906     4.379598541477
H     -0.646354437946    -2.636373773111     6.887983882082
H      0.226683455863    -0.674602489551     8.163855990925
H      1.180864007986     1.285497878353     6.944792433321
H      1.258028259764     1.282349149489     4.441728768020
C     -2.265247982932     0.484625142900     2.354030263960
H     -2.890373953061    -0.402680713352     2.299116984550
H     -1.631051801653     0.563117209325     3.231288474487
C     -2.382673970638     1.545081652491     1.460296203719
H     -1.776801971375     2.423860543045     1.623148126338
C     -3.419253161913     1.671928962234     0.422373832423
O     -4.270214944241     0.757694265053     0.263199197348
O     -3.336863289364     2.750976126972    -0.473601030484
C     -4.372137604166     2.824688320208    -1.464350208497
H     -4.208320981844     3.719932616350    -2.102605874569
H     -4.361637472913     1.923607032802    -2.118565686223
H     -5.372707171895     2.920418532702    -0.984148313690
Pd    -0.567764703340     0.202225026748     0.879415027212
C      1.635518754638     2.012422148303     0.998187447198
O      2.367933175975     2.985054204799     1.240259428939
O      0.449480265305     1.792251210617     1.608076868796
C      2.020846958989     0.918668915709    -0.062700060644
H      3.116495670066     0.866688250610    -0.083013494359
C      1.528745551377     1.275217642133    -1.446747017591
H      1.824542368397     0.479569258007    -2.161425967844
H      0.423328162404     1.360985920575    -1.445895729314
H      1.971880532435     2.239985086380    -1.771855416116
N      1.343415445451    -0.330465441387     0.333210063133
C      1.904577381908    -1.457052452480     0.699267642228
O      1.297296773016    -2.449020610981     1.287942630238
C      3.342677739633    -1.682763884842     0.453174852931
H      3.541204166193    -1.534081073373    -0.621874449084
H      3.920108701858    -0.984152872664     1.081622766718
H      3.604624989693    -2.720260273774     0.735556143439
N     -1.623023136115    -1.325735957863     0.017174374517
C     -2.318319749145    -1.123182751227    -1.143369424346
C     -3.184302075571    -2.090752973089    -1.607808114462
C     -3.371354878554    -3.261001617156    -0.905326805529
C     -2.648935977282    -3.457728163084     0.241749357055
C     -1.748222560729    -2.461698335583     0.681269533565
H     -2.196345454437    -0.195674899128    -1.690326472748
H     -3.741735613781    -1.912899688216    -2.512039645821
H     -4.067047767839    -4.016690812986    -1.259965118868
H     -2.729561050868    -4.355374495411     0.820502332693
O     -1.050502689119    -2.731534559879     1.735946225113
H      0.213781002352    -2.478720309561     1.562330114944

