# STO-3G

title

0 1
C      4.251181550292    -0.658558508903    -1.696499694213
C      5.463420900126    -0.195903998679    -2.244258422089
C      6.636440184744    -0.963154476902    -2.099604348722
C      6.594278969834    -2.190425285327    -1.406901788946
C      5.379872765393    -2.650094809832    -0.858787800003
C      4.205062954300    -1.884632549391    -1.002217094220
H      3.351882618528    -0.060873119497    -1.810532852603
H      5.486129718512     0.752950404955    -2.774939907164
H      7.574177471434    -0.607953424821    -2.521332501320
H      7.499894977548    -2.782802170631    -1.294802173655
H      5.346841002608    -3.595995529744    -0.322846352559
H      3.264917079540    -2.232544152278    -0.579654308037
C      1.292918059262    -0.991190564003    -3.374221209479
H      1.951682513321    -1.741166709690    -2.947313711315
H      1.770770040091    -0.229632805861    -3.984178286070
C     -0.092816483864    -1.089298458701    -3.275867533732
H     -0.709839438064    -0.392587362260    -3.821777793341
C     -0.804833460514    -2.236148693915    -2.685353995807
O     -0.214941207782    -3.338297087331    -2.536613810447
O     -2.176092308029    -2.094569996043    -2.409534992006
C     -2.801997840598    -3.226232274619    -1.787437893704
H     -3.874581358888    -3.002667103311    -1.603094656750
H     -2.741822097269    -4.123635042590    -2.444779798529
H     -2.319888583691    -3.455933147943    -0.808893029483
Pd     0.715509394102     0.265288368187    -1.589205023758
C      0.667906033254    -1.039063385041     0.937834892930
O      0.575026042136    -1.895240428665     1.831611509377
O      0.839238428262    -1.330404668846    -0.370666524785
C      0.575335113114     0.498030363317     1.251621382318
H      1.029216150611     0.644081814598     2.239654583064
C     -0.858627843088     0.974091928745     1.302964710717
H     -0.881614827081     2.058832474317     1.535067723857
H     -1.347101290784     0.807701325301     0.321627936598
H     -1.415432267663     0.421704377712     2.088984665530
N      1.235499907693     1.223120563496     0.149736801908
C      2.268506620622     2.025219411254     0.230197353352
O      2.966589793929     2.470245758598    -0.778358450310
C      2.728136193270     2.511670379581     1.545987707744
H      3.541437722004     3.246524491845     1.397501790246
H      1.879108746496     3.000163631901     2.052851228910
H      3.119485208406     1.657070535101     2.125084553164
N      0.362131667424     1.885796647238    -2.795625022489
C     -0.925049035560     2.274652071386    -3.045494222059
C     -1.182870716107     3.209585920682    -4.025423563315
C     -0.152669762911     3.774985054739    -4.746293796375
C      1.132661142502     3.401952526624    -4.452696117034
C      1.371781009670     2.453975237237    -3.432723957148
H     -1.742132658304     1.821491330967    -2.495995461017
H     -2.201420540696     3.497140400321    -4.229923595144
H     -0.354180329893     4.511040672959    -5.520206196793
H      1.979414765048     3.825739749875    -4.954575046815
O      2.604517014018     2.189197169510    -3.152775524174
H      2.808292548168     2.217871570955    -1.845208979345

