# STO-3G

title

0 1
C     -2.347231203800    -1.449671945411     0.733646876317
C     -1.925722176554    -1.530967483925     2.076661342897
C     -2.087245174197    -2.733218178093     2.793333172337
C     -2.673050324696    -3.852990448225     2.168463828060
C     -3.102798258277    -3.768325795095     0.828558010055
C     -2.941907526767    -2.565734790356     0.111406587780
H     -2.219957628850    -0.525084177355     0.179087879891
H     -1.460128075714    -0.672717645930     2.556067525332
H     -1.761201040071    -2.795109776803     3.829435199981
H     -2.801528374401    -4.779701599013     2.723688037595
H     -3.566674250600    -4.628662581839     0.351031709469
H     -3.284397131537    -2.492890412808    -0.918453387293
C      0.240700813908    -1.910957805284    -2.284821404937
H      0.331458782059    -2.896214526306    -1.840239900509
H     -0.718002941140    -1.642952664920    -2.713445823064
C      1.359483390087    -1.115510152050    -2.548455249228
H      1.245955495612    -0.229817445674    -3.156365212326
C      2.750835717661    -1.501793275078    -2.253968013974
O      3.002705229900    -2.646732723348    -1.791487177233
O      3.775525253450    -0.583879494844    -2.535259746666
C      5.083955985634    -0.950620489317    -2.076210672527
H      5.805299859886    -0.148436182505    -2.342264486374
H      5.093060446362    -1.069637278077    -0.968343290821
H      5.422218705982    -1.897593178001    -2.554761190808
Pd     0.274258276739    -0.194742346905    -0.780807023902
C     -1.770298743792     1.546368722783    -1.810849405016
O     -2.833016285116     1.796568231199    -2.404594877183
O     -0.909421124526     0.586499629496    -2.205041498984
C     -1.287145012834     2.361930281533    -0.585091040742
H     -2.185193596585     2.714843854448    -0.059080171193
C     -0.484828106432     3.561597046447    -1.057975510365
H     -0.166835218347     4.188406504961    -0.202335850530
H      0.423889622692     3.211412849515    -1.592418234431
H     -1.095210380293     4.183948756393    -1.746350240427
N     -0.389317864059     1.533830721412     0.260968587078
C     -0.082574180346     1.834608712939     1.502706025800
O      0.972921285067     1.392527759662     2.123384425539
C     -0.983731344892     2.669145316765     2.327942795276
H     -1.030215096796     3.686857551401     1.910761855561
H     -1.977871779184     2.190564249841     2.341359084393
H     -0.589256807376     2.720306222501     3.360561359644
N      1.365759476810    -1.302871509153     0.585873181731
C      0.984553518301    -2.596394803129     0.834025939717
C      1.824048564800    -3.449158874717     1.519401097922
C      3.056828520330    -3.020218290806     1.955798365188
C      3.405421219961    -1.713639322904     1.742906833100
C      2.511662819189    -0.853639598429     1.065328148423
H      0.030065769673    -2.960724396462     0.478923248786
H      1.517491877708    -4.467755208893     1.688374798669
H      3.726258591718    -3.695952226866     2.480887796571
H      4.327690425025    -1.303705880316     2.099639281620
O      2.849804001484     0.394197576250     0.989889347986
H      1.838463980835     1.014767421892     1.511229008732

