# STO-3G

title

0 1
C      1.289417052473     3.239803630903     0.238011851683
C      2.408525419725     3.129273198943    -0.633083458361
C      2.251950311858     3.348073964115    -2.010069535153
C      0.982768535297     3.691231507904    -2.529682154042
C     -0.133365774712     3.805750707348    -1.678673064066
C      0.017099789416     3.585032881426    -0.294109313249
H     -0.489502987289    -0.569789504083     2.599070038905
H      3.384456791055     2.884087887002    -0.222157700804
H      3.106707905732     3.259584337740    -2.675919120229
H      0.872366115450     3.876152942209    -3.595996544234
H     -1.103230360779     4.082464141261    -2.082975079390
H     -0.828283440692     3.729987441468     0.372052763316
C      2.192656713212     1.092728164024     3.249495656602
H      2.453420070741     1.202822417871     4.303547073526
H      2.892715941931     0.512575425543     2.649979616223
C      1.049577927130     1.581514980122     2.719825825685
H      1.450006250920     3.219589559816     1.315732546122
C     -0.009206781524     2.254305017366     3.510202141862
O      0.058570869909     2.272463148108     4.768967660865
O     -0.892949504201     3.105443973087     2.821552025786
C     -1.817236959839     3.836044840220     3.641204557276
H     -2.475094938939     4.458072753414     2.997209612835
H     -2.458842575222     3.140890831418     4.230211850587
H     -1.275534741991     4.513172955469     4.340683347736
Pd     0.812339937738     1.035323491696     0.775539300301
C      0.447614222847    -2.136719810313     0.948799892800
O      0.955568088704    -0.979231574424     1.455634302473
O      1.113233238042    -3.193476948243     0.946581831778
C     -1.042626365138    -2.144468183783     0.465745536076
H     -1.551147372999    -2.774169072685     1.219286895159
C     -1.186280965703    -2.833717993080    -0.871776930505
H     -2.261462294956    -2.916799775547    -1.134055958883
H     -0.676402948919    -2.236540491418    -1.652035954488
H     -0.746441298505    -3.852288419304    -0.837677737874
N     -1.767203221068    -0.870193737098     0.350269968902
C     -1.949993002014    -0.095057007808     1.355035713576
O     -1.400734809681    -0.169167789038     2.619142115621
C     -2.896909703799     1.007429768335     1.166572558424
H     -3.863453818580     0.565058358750     0.870147128810
H     -3.005337785962     1.560357868133     2.114584537974
H     -2.513394925783     1.661034193301     0.366069227619
N      0.945994975614     0.193959527391    -1.212450234236
C      0.068686904732     0.445755685598    -2.231683176008
C      0.358318799621     0.006626957838    -3.509422493465
C      1.521293797164    -0.690721688811    -3.763430691662
C      2.366949463205    -0.950026737112    -2.715445178489
C      2.021034482651    -0.497438797417    -1.427129532301
H     -0.845206638984     0.993725514130    -2.035352171718
H     -0.334108076723     0.211753672154    -4.308927160789
H      1.753951138140    -1.039274642498    -4.766128163854
H      3.271806092998    -1.512350585429    -2.834189250906
O      2.876919990911    -0.844612850066    -0.463201417571
H      2.448725772623    -0.864351275781     0.447066233863

