# STO-3G

title

0 1
C     -0.087084950372     4.090932741535     0.381436014286
C      1.197936732143     4.088497659697    -0.225766641393
C      1.317962488661     4.294741757939    -1.620248979182
C      0.172130543982     4.547273256306    -2.391373136174
C     -1.111875348175     4.566714818976    -1.790094018902
C     -1.243521277517     4.322844675212    -0.416609164991
H     -2.432687369176    -0.471858791788    -0.077507462034
H      2.093017726474     3.996801555609     0.384873093146
H      2.300984633568     4.281977302154    -2.084240592300
H      0.272078426869     4.739384204878    -3.457483988965
H     -1.990256691081     4.775345813179    -2.395535652359
H     -2.221656811872     4.342514267234     0.056944782772
C     -1.021036590400     2.274953789094     3.430114377692
H     -1.080331959479     2.377736981416     4.514329989167
H     -1.950612440333     2.069117957343     2.905998777354
C      0.148871174465     2.331525265547     2.762919077621
H     -0.170820848249     4.078819721636     1.465314573455
C      1.484577210632     2.422132768911     3.387441682658
O      2.430560344714     2.871312736377     2.689111784038
O      1.687173562202     1.969740077490     4.703215704762
C      3.035091842973     2.039778144070     5.188817743665
H      3.070927399824     1.655627209423     6.231114116448
H      3.712960230598     1.413059206557     4.565572863048
H      3.401395238591     3.091406482195     5.192869026403
Pd     0.214191011271     1.814093766476     0.823557204092
C     -0.799237739775    -0.740745837772     1.511791802110
O      0.399824253401    -0.187501040661     1.565012110915
O     -1.857590925069    -0.030808923502     1.413505657958
C     -0.927546110820    -2.281074373327     1.345468561461
H     -1.864863352973    -2.569465286494     1.844535138477
C      0.215639504849    -3.059016656720     1.951143837276
H     -0.000700293662    -4.145036569391     1.880041133054
H      1.144401118853    -2.849381728763     1.381389954672
H      0.354478858458    -2.779626322957     3.015432101297
N     -0.983770276641    -2.657386096471    -0.075081072118
C     -1.623499156258    -2.046462890249    -1.007630864341
O     -2.395724503879    -0.908440682925    -0.980554742328
C     -1.565293324363    -2.646713687203    -2.344939281833
H     -0.934627011111    -3.553662087045    -2.314573656446
H     -2.596193889061    -2.900861148159    -2.638416761884
H     -1.135664072793    -1.901166102989    -3.033194246997
N      0.341767171813     0.876236012130    -1.167250685572
C     -0.453443170260     1.241380660281    -2.219822641876
C     -0.129600419541     0.839965066111    -3.502724056124
C      0.973098883577     0.045075207886    -3.729910402120
C      1.714343741445    -0.359689802312    -2.651068753250
C      1.340386693340     0.068790755231    -1.360696367090
H     -1.330236719366     1.851244643955    -2.047252903228
H     -0.755504645479     1.145971887519    -4.324118827778
H      1.229811893624    -0.277532984060    -4.735240372541
H      2.556157394540    -1.015481612370    -2.746970282743
O      2.082464076401    -0.433157806041    -0.375675727119
H      1.607255111876    -0.380431997329     0.516780357149

