# STO-3G

title

0 1
C      1.640578833291     3.209088484015    -0.397106044667
C      2.812103950175     2.954209303491    -1.161035259830
C      2.834061844334     3.250044255505    -2.533650303994
C      1.697616465125     3.821516834079    -3.148568422259
C      0.531199019412     4.082776529298    -2.400604982349
C      0.499773792020     3.776591043852    -1.026564130476
H     -0.812545755371    -0.881065827485    -0.041248132375
H      3.692653069488     2.544116258036    -0.673095152018
H      3.727989674318     3.051305713711    -3.119272935445
H      1.727797376897     4.069596928182    -4.207251973046
H     -0.335618644010     4.532251448058    -2.877539773183
H     -0.381160901435     4.012577877307    -0.434354582338
C      1.995940300608     1.281268211591     2.806620851518
H      2.067166427310     1.424895020663     3.884887714847
H      2.818657976833     0.734224543191     2.346864409591
C      0.937495773042     1.694757477740     2.079360757084
H      1.684143531826     3.149327353356     0.693556713478
C     -0.283347466952     2.307937294159     2.642974289427
O     -0.953983827400     3.073227833486     1.900216474430
O     -0.579305387002     2.159643584919     4.008774893389
C     -1.891428266566     2.579217937558     4.405036733591
H     -2.020107792084     2.401483835537     5.494094052076
H     -2.040421923208     3.664873277657     4.208416305902
H     -2.668561316770     1.988816763307     3.866653718049
Pd     0.896765337455     1.077605499630     0.159190967650
C      0.377029206882    -1.399834487499     2.097221298087
O      0.595764828545    -0.937254257155     0.826700293778
O      1.254837263746    -1.997468126332     2.742189406261
C     -1.052925132330    -1.178272430683     2.689549931343
H     -0.861844418140    -0.886645571723     3.729605528287
C     -1.819677617147    -2.488587978413     2.727970346943
H     -2.781092016861    -2.343675653736     3.263654856937
H     -2.033205750039    -2.820681505752     1.691042846935
H     -1.230738989787    -3.269510043891     3.253258518447
N     -1.964896161921    -0.177607861370     2.125929479902
C     -2.270793860662     0.030188092346     0.898917333968
O     -1.717485271221    -0.493018515195    -0.246471359860
C     -3.388879307482     0.947373354443     0.654764507530
H     -4.276743474194     0.530257723542     1.158497059261
H     -3.126881791359     1.925523793289     1.089758975283
H     -3.566185166033     1.039047281464    -0.431543788017
N      1.055400121039     0.132526991920    -1.804067813307
C      0.495621356541     0.655867424778    -2.937282033916
C      0.890016888557     0.195086773757    -4.178962186419
C      1.828513282092    -0.809042276390    -4.287287932704
C      2.342501048994    -1.346421883407    -3.136047486663
C      1.899450939691    -0.855462075215    -1.890306982962
H     -0.246577555307     1.440039599264    -2.859246093748
H      0.452056814940     0.622703591428    -5.065146453337
H      2.139027665878    -1.178186150411    -5.260986987844
H      3.047092846603    -2.153480660726    -3.144650182641
O      2.399299035020    -1.478519307132    -0.833163252196
H      1.811318186982    -1.333721766825     0.010356034968

