# STO-3G

title

0 1
C      0.094930740179     3.887594355855    -0.392053232951
C      1.293412334909     4.577431054544    -0.077307430841
C      2.003732153426     5.256744423291    -1.085735373160
C      1.521677655840     5.243809105493    -2.410958227161
C      0.331107518253     4.555929902671    -2.733301473613
C     -0.387205278965     3.888613296580    -1.726348012218
H     -1.739467088559    -0.603253793859     0.430766934957
H      1.645824926196     4.608313657177     0.951247841320
H      2.913670165831     5.798018145675    -0.839700256971
H      2.063705921594     5.776777449336    -3.189103120091
H     -0.037700247233     4.555723529657    -3.756014549646
H     -1.319898521888     3.382629142127    -1.962741451595
C     -1.952118180390     1.746292781377     1.927865184597
H     -2.477301626354     1.807970389947     2.881406749165
H     -2.571039487772     1.486276345619     1.072077857250
C     -0.619848899169     1.916427759551     1.825117659185
H     -0.543651482826     3.520925226928     0.422669287818
C      0.308509668516     2.138094447034     2.953031907348
O      1.388998828612     2.737815652750     2.708574493590
O     -0.078249225798     1.818582374366     4.266314928869
C      0.937365245981     1.967897366327     5.267204025840
H      0.525257231859     1.670357935448     6.255270457145
H      1.808259244745     1.309979369806     5.043436792683
H      1.276686063378     3.026161630425     5.334753310106
Pd     0.385948221013     1.559520206769     0.116794081638
C      0.366960415084    -1.163910431605     1.499723630423
O     -0.136565640661    -0.457112034438     0.438282816945
O      1.246061690105    -0.698616143696     2.244370222198
C     -0.269299998567    -2.574064109669     1.725819608484
H      0.211612188933    -2.935021857389     2.641952481555
C      0.083491596448    -3.532850204949     0.603848305695
H     -0.238522441179    -4.558654597002     0.880102867145
H     -0.451840713027    -3.233760719969    -0.320729554861
H      1.177750642592    -3.534526529178     0.420360691630
N     -1.712611842632    -2.684718837341     1.931791553026
C     -2.681916320097    -2.012461657362     1.433880530964
O     -2.675835240382    -0.924900979624     0.597668217443
C     -4.027552657033    -2.460451809933     1.807129152211
H     -4.104017816403    -2.403994627505     2.905878753337
H     -4.778360115969    -1.809391131950     1.327779389272
H     -4.142959988682    -3.504245630298     1.467985327546
N      1.459948982450     1.015037076568    -1.717458104066
C      2.447700727815     1.837722745988    -2.191094517928
C      3.006131168535     1.609001443401    -3.433081996760
C      2.585214864526     0.548704614875    -4.205240592426
C      1.616632822711    -0.276732394069    -3.698970897358
C      1.081923390210    -0.011645072051    -2.421065555113
H      2.797387919679     2.663350372994    -1.587058643908
H      3.777092055133     2.268524436540    -3.796132957832
H      3.019423593576     0.364474573482    -5.184345287636
H      1.255320521541    -1.130814039726    -4.236444287356
O      0.179485339619    -0.892677812160    -2.015326757076
H     -0.042418718941    -0.807281538408    -1.016979909009

