# STO-3G

title

0 1
C      0.589060795813     3.429452611152     0.826506500689
C      1.601516397647     4.134034526614     1.521678036506
C      1.872741305154     5.481010973495     1.222802661035
C      1.137048661666     6.158119210183     0.231656642550
C      0.113166471973     5.476504827055    -0.455305451171
C     -0.159187323559     4.133668121693    -0.153177994707
H     -3.830617979334     0.408195615479     0.501906914082
H      2.175739824328     3.657478078883     2.310240779359
H      2.655216379017     6.002794296971     1.768922844713
H      1.352108172095     7.199721836488     0.005635318788
H     -0.469075378621     5.990887168743    -1.216058822038
H     -0.951639060503     3.611545985279    -0.686800462185
C      0.187978675900     2.025456176536     1.085831160544
H     -0.861386911681     1.842957556823     0.854495179704
H      2.330617393578     1.161154127922    -0.572938092809
C      0.798641940734     0.947814568032     1.745346594914
H      0.147072320968     0.141191281019     2.050515950006
C      2.146958319753     0.897850717475     2.330377640037
O      3.102803306287     1.390897283757     1.673065829392
O      2.393010575276    -0.055767025612     3.330951446510
C      3.747513328351    -0.150870651129     3.793774560809
H      3.806975054569    -0.917966708631     4.596152816465
H      4.428511311216    -0.460875528262     2.969078875810
H      4.091105489082     0.820405340518     4.216196125605
Pd     0.898309812488     0.618340966280    -0.530399680754
C     -1.473970278298    -1.258132325341    -0.017998660758
O     -1.168677087504    -0.067194278021    -0.403213133673
O     -0.734404194444    -2.304251947992    -0.182034355634
C     -2.806912691329    -1.439819062820     0.746942994478
H     -2.579185320218    -2.050765646283     1.626320346985
C     -3.862070920200    -2.142791962423    -0.079219755531
H     -4.779689127053    -2.273651432042     0.531011201479
H     -4.109145414482    -1.527150549580    -0.967916932129
H     -3.495974775871    -3.138603245293    -0.404277296268
N     -3.341457092093    -0.154843633639     1.186258729885
C     -2.822015604663     0.438596375287     2.295724549006
O     -1.904410619173    -0.057170358272     2.993234723423
C     -3.387287613281     1.747655406810     2.690117771078
H     -3.772995998762     1.643326000169     3.717588638957
H     -2.566408107897     2.484064766550     2.664310084267
H     -4.200243009658     2.047091848741     2.006226333178
N      1.332270028436    -0.120613025351    -2.405494428887
C      1.708499657783     0.765021500797    -3.379500970065
C      2.242998624075     0.304438963192    -4.562464788270
C      2.390973618578    -1.046204499566    -4.784886929555
C      1.992564368159    -1.913807879511    -3.803108595545
C      1.444225490820    -1.414465554286    -2.600142725099
H      1.596973723265     1.830535865494    -3.212820803004
H      2.541989349129     1.009569385868    -5.321457096010
H      2.809483131496    -1.414928297246    -5.717855443160
H      2.073761413364    -2.976724999799    -3.919547088390
O      1.091469297263    -2.334851999175    -1.752181789428
H      0.294636035988    -2.235842902062    -0.962556136358

