# STO-3G

title

0 1
C      1.169860130035     3.959922023240    -0.016191086105
C      2.241536361243     3.129717108810     0.381941211523
C      3.445410095751     3.689747293656     0.844506518418
C      3.602376725612     5.087229858280     0.908054229202
C      2.548233208393     5.924305897082     0.493113594261
C      1.346845777705     5.364514278828     0.025465981883
H     -2.596033866216    -0.720713787297     0.945356536898
H      2.147636439183     2.048541558330     0.309080501728
H      4.258447723464     3.033062218102     1.143022448887
H      4.535174470630     5.517255924270     1.264258599500
H      2.663252676350     7.004941451229     0.528681775762
H      0.539850812719     6.020097406768    -0.296928214460
C     -0.146382353971     3.452221459741    -0.503096655064
H     -0.544064061581     4.007012187227    -1.350156304703
H      0.524319456454     2.368908609700    -2.335958344619
C     -1.071829264266     2.636625544832     0.165342230712
H     -2.082136916134     2.615162408566    -0.223206338735
C     -0.967915651052     2.209094908982     1.573168942232
O     -2.012950606849     2.210473438196     2.275956390102
O      0.255563760195     1.742272516878     2.082620321727
C      0.285988846853     1.474970194242     3.491659461827
H      1.294277705540     1.104712467611     3.774671237345
H      0.079613848292     2.401915312649     4.072305382044
H     -0.459323569905     0.696519018537     3.770034342821
Pd    -0.067253871800     1.318520268409    -1.382043688422
C     -0.165201028642    -0.975557520383     0.622275953015
O     -0.883209287669    -0.240726666030    -0.166903846857
O      1.116295780376    -1.100942645617     0.565051466306
C     -0.931963536322    -1.715404777725     1.728673734847
H     -0.406975385902    -1.583445598649     2.680302288345
C     -1.059535768369    -3.197600650160     1.448955226095
H     -1.580304454352    -3.686222561058     2.298661350514
H     -1.662892785860    -3.346779193680     0.530422975780
H     -0.056737673249    -3.655667117313     1.324173878181
N     -2.271214648364    -1.142078500178     1.812526547198
C     -2.859686732331    -0.884032519094     3.009646535445
O     -2.357660465320    -1.161503135994     4.125843734574
C     -4.202857011342    -0.273247312360     2.935183541341
H     -4.852572906645    -0.956820850337     2.365274461685
H     -4.580020242553    -0.133445175235     3.962402218010
H     -4.109538652688     0.700291170197     2.424597233009
N      0.681952148844     0.016307535115    -2.796781623613
C      0.110741236676    -0.037559649738    -4.039848877987
C      0.776525273334    -0.650356898373    -5.078845815658
C      2.008168543175    -1.233200850379    -4.875410448901
C      2.546367870342    -1.191771116629    -3.616602568537
C      1.836892908379    -0.563578900490    -2.569916849543
H     -0.855651653016     0.422619203547    -4.210789470328
H      0.324453986903    -0.680652063155    -6.057449521915
H      2.535757186821    -1.721329780715    -5.690955393479
H      3.493010282329    -1.641407125772    -3.388381747757
O      2.420970280911    -0.608221557379    -1.404641764143
H      1.806902554343    -0.712201971285    -0.476231640416

