# STO-3G

title

0 1
C     -0.075699577264     3.766880568648    -0.244346291185
C      0.533899729872     4.858603050328     0.421733056784
C      0.666084397053     6.105180509120    -0.215178792712
C      0.188797767041     6.295217956254    -1.526338682593
C     -0.438326397107     5.225524075269    -2.194471779251
C     -0.575006143410     3.983045670447    -1.556464891209
H     -4.275600759035    -1.320089254531     0.767045549714
H      0.895474719421     4.767473347625     1.441263406865
H      1.136572998040     6.929953740628     0.315428330920
H      0.294442150586     7.261864519648    -2.013250261248
H     -0.823758260446     5.361811512476    -3.202074046369
H     -1.070229815543     3.161562614046    -2.070453285525
C     -0.309675928836     2.415513127670     0.322648229648
H     -1.160606832206     1.922844425667    -0.149914819574
H      2.360496910201     1.860509245548    -0.188493403454
C      0.179977717169     1.740376791696     1.456459657106
H     -0.368829563726     0.865530921707     1.781014386547
C      1.166010774457     2.226909067541     2.434607300286
O      2.237576775088     2.730905036695     2.001433411258
O      1.096466603140     1.732204136252     3.746669746436
C      2.141604982922     2.149321203886     4.636173877434
H      1.961151436791     1.712270098792     5.642200737094
H      3.133792598707     1.792758692299     4.278190223532
H      2.157097052484     3.258101897288     4.736879987713
Pd     1.200270770691     0.895843678683    -0.413971940508
C     -1.694463762303    -0.556730207531    -0.598183950675
O     -0.373264624110    -0.583162234362    -0.726714796389
O     -2.428377501090     0.397606266351    -0.951022902823
C     -2.290676669008    -1.807304456003     0.119561149903
H     -1.481161405776    -2.296996578313     0.669643005247
C     -2.908795718828    -2.793420567882    -0.846789835767
H     -3.314912215963    -3.658047747891    -0.282077631702
H     -3.738687217236    -2.301699491955    -1.395683739060
H     -2.146198950258    -3.152796333110    -1.567852817709
N     -3.313025845633    -1.378988402710     1.070735972515
C     -2.929756173224    -0.715197109629     2.191279998686
O     -1.735153684100    -0.477993153955     2.494435735737
C     -4.018607631695    -0.257530500729     3.076600714596
H     -4.597905074302    -1.143743791979     3.384582588471
H     -3.572078311482     0.244389634487     3.952261937340
H     -4.649271201274     0.446589061134     2.506360993242
N      2.529070823669    -0.307269546135    -1.501363398604
C      3.631480786195     0.250949722818    -2.094324488145
C      4.625810738833    -0.554240659760    -2.606485431630
C      4.520827487231    -1.925725579491    -2.541226376970
C      3.402167714997    -2.463113581777    -1.963007629512
C      2.399742832033    -1.610764798134    -1.453494497922
H      3.727939502973     1.328895431722    -2.154498439444
H      5.491788507517    -0.104047863676    -3.065343463998
H      5.301967029309    -2.565023903960    -2.944734116135
H      3.253113349192    -3.522775218885    -1.892126377897
O      1.363931239609    -2.236918166672    -0.947291035422
H      0.510944285584    -1.612877410076    -0.752002479981

