# STO-3G

title

0 1
C      0.561501509921     0.784500911412     1.560074882514
C     -0.721669540486     1.175697694879     1.994865536444
C     -0.864112800888     1.922816001516     3.181068024545
C      0.273517736106     2.277168883780     3.933447367244
C      1.555137750112     1.882641702786     3.500273164427
C      1.698482764415     1.136035195112     2.314497706392
H      0.681861392870     0.194895060679     0.651547471740
H     -1.598630761267     0.898746934298     1.415119377599
H     -1.853698747352     2.224950043238     3.516394490198
H      0.162504296681     2.853839303289     4.848965177979
H      2.434164802829     2.153185628580     4.080639559317
H      2.687130320624     0.828738032115     1.980802853406
C      0.570164947058     1.069794098464    -2.377902006172
H      0.604120600211     1.069947998468    -3.473518897851
H     -1.075931032033     0.551956922928    -1.356975382957
C      0.036638553605     2.164049093994    -1.748831718503
H     -0.021308438957     2.219854020524    -0.664613495695
C     -0.507621520390     3.350936674479    -2.438176980415
O     -0.471977111012     3.420907696575    -3.696552104654
O     -1.011677589242     4.408012627342    -1.661404868791
C     -1.509470247506     5.539736109289    -2.388789585787
H     -1.880208075316     6.303644638511    -1.671807167328
H     -0.703003877803     6.001633064960    -3.002534188944
H     -2.355182871717     5.244021936779    -3.050337399471
Pd     1.388669675713    -0.653367730436    -1.662818357476
C      1.456905448270    -3.503333068185    -1.083767594764
O      2.241485274458    -2.430079971325    -1.032677137783
O      1.784518015497    -4.670795233739    -0.782988259239
C      0.007229776898    -3.220384320140    -1.620665972078
H     -0.656511406568    -3.912169379395    -1.086551498586
C     -0.088880442288    -3.500077251001    -3.105301613727
H     -1.127494834375    -3.330318114144    -3.455794752998
H      0.590005475896    -2.820140313093    -3.659580892536
H      0.195037293477    -4.552994160148    -3.314977633944
N     -0.342217416574    -1.788804632249    -1.434526462393
C     -1.499552225777    -1.342160035885    -1.067124933768
O     -1.791541536476    -0.039315407576    -0.981843948977
C     -2.612086459600    -2.233511306174    -0.692294094886
H     -3.494540155693    -1.618297760486    -0.435651450872
H     -2.854417426061    -2.876362520153    -1.554290956433
H     -2.312035007971    -2.822870741638     0.191699783797
N      3.322732330720     0.083703158786    -1.823932509497
C      4.217703192234    -0.822783632376    -2.336797254848
C      5.569855255842    -0.541992600270    -2.325556521323
C      6.035239438152     0.637236646937    -1.788091399489
C      5.120857165277     1.524141852765    -1.284625708196
C      3.750329450568     1.201415109866    -1.326586346468
H      3.866993716605    -1.746454704717    -2.781304464557
H      6.262856147710    -1.261028709659    -2.731048631261
H      7.098845938641     0.859705900920    -1.767964280311
H      5.413668089300     2.461325023368    -0.854721151530
O      2.961101127742     2.135931122036    -0.810395419324
H      2.002839768572     1.944441193864    -0.963301142076

