# STO-3G

title

0 1
C     -1.454498417951     0.072375222947     0.872222856825
C     -2.783318928416     0.541649735682     0.847093303581
C     -3.631848677232     0.308908356148     1.947476376611
C     -3.154429462609    -0.395045942227     3.071263468163
C     -1.826987874173    -0.867636963919     3.094494538512
C     -0.977633344181    -0.634724889323     1.994332472207
H     -0.809403774078     0.241171982601     0.011560314430
H     -3.149626195529     1.075515437238    -0.027021551288
H     -4.657357457387     0.670844070642     1.926866982226
H     -3.810644454582    -0.574564597588     3.920060103649
H     -1.458216391317    -1.411653211895     3.961317082899
H      0.045743713191    -1.004481763672     2.014889422085
C      1.953582879009     0.526062389822    -1.271809470300
H      2.819184596748     0.563825997524    -1.946927925794
H      2.283897925519    -1.183114336220    -0.848221740907
C      2.067980029026     0.931438451927     0.021980536274
H      1.209674731091     0.899496171092     0.681801502807
C      3.307034130227     1.435310710027     0.643583125124
O      4.325843399766     1.652973257547    -0.067133939369
O      3.289258150563     1.757658745400     2.011987075344
C      4.517772253517     2.263918405839     2.552734274946
H      4.383892489394     2.475858603356     3.635384847305
H      5.336009063538     1.516296956415     2.442919903049
H      4.812205677908     3.211397477877     2.046841811931
Pd     0.254685020673     0.026537395260    -2.213833368243
C     -1.729787896257    -1.795196257111    -3.460585010585
O     -1.500678516733    -0.491705307753    -3.253817173095
O     -2.547374015957    -2.271641266512    -4.266195885987
C     -0.908742125069    -2.721907356389    -2.513737971703
H     -0.731311393998    -3.649143075636    -3.074043421602
C     -1.734813550405    -3.042847527705    -1.280887557988
H     -1.175895721782    -3.701082519909    -0.587722829368
H     -1.986456236687    -2.106951949718    -0.742417664817
H     -2.677065751153    -3.552752819911    -1.573309496458
N      0.348994537023    -2.075321175386    -2.044217761402
C      1.395379884328    -2.733810244055    -1.648397356809
O      2.432097458486    -2.162786291698    -1.030441450077
C      1.563449402050    -4.182759173035    -1.877986646169
H      0.766779247917    -4.732751259916    -1.354118926858
H      1.541697830028    -4.365416482288    -2.965262872158
H      2.544576607135    -4.502378607545    -1.478114441188
N     -0.177723172865     2.085033601574    -2.417587983594
C      0.789168987098     3.061061574637    -2.409843447431
C      0.438827017133     4.391992438483    -2.312049978529
C     -0.881805098509     4.765511007893    -2.231462642226
C     -1.834072176724     3.785474273746    -2.281500557963
C     -1.442425035684     2.434871764804    -2.401142086331
H      1.836579553083     2.801821627238    -2.490330833440
H      1.212142583653     5.142818639896    -2.296324798125
H     -1.161786118584     5.812433554615    -2.149118663960
H     -2.881618032282     4.010762886001    -2.252255774417
O     -2.451137621669     1.598013788536    -2.482685709094
H     -2.207734163521     0.638765303346    -2.848135434221

