# STO-3G

title

0 1
C     -2.166347703188     0.150360379492     2.002352574301
C     -2.958686349941     1.307335055253     1.859500086477
C     -4.295315315427     1.304881798510     2.305148057890
C     -4.839733093269     0.147313722099     2.896493269330
C     -4.044462330830    -1.006459178026     3.046598658427
C     -2.707665102634    -1.005805421274     2.600487976753
H     -1.136297411673     0.158780750362     1.649249248169
H     -2.529181551859     2.203075688578     1.416609434742
H     -4.904110998128     2.199762611290     2.196638268088
H     -5.871427668143     0.146139681385     3.241344520614
H     -4.461975209844    -1.898130238368     3.509007693097
H     -2.092757537247    -1.894348034370     2.721633646868
C     -0.034260973085    -1.622986618758    -0.916104943958
H      0.696848256261    -2.316399833370    -1.346717285184
H     -0.172058575756    -2.277255423512     0.878783325292
C     -1.370087445463    -1.886748371317    -0.958928691316
H     -2.074204536548    -1.201208613765    -0.500450305431
C     -1.975510532226    -3.079950653925    -1.579454055350
O     -1.252700254495    -3.894040570193    -2.216648356791
O     -3.372901547425    -3.227174000979    -1.533857180347
C     -3.901199931671    -4.401636057980    -2.165522286330
H     -5.007259637840    -4.410650485562    -2.058401586631
H     -3.656548028551    -4.410900413234    -3.251898243282
H     -3.497793425246    -5.322900156572    -1.687130758161
Pd     0.766651640701     0.011976880308    -0.088672695529
C      2.609586633850     1.369914283853     1.797740437847
O      1.611153582942     1.656739016968     0.953950370045
O      3.201903756245     2.170268989685     2.540537253248
C      3.006697304428    -0.150683893251     1.762360668764
H      3.436754868834    -0.373487893198     2.746806062815
C      4.048636269998    -0.431094168659     0.703162845930
H      4.321088793505    -1.506672074668     0.723315721205
H      3.644773120556    -0.183631892904    -0.299691955127
H      4.958710917546     0.176404221510     0.892028126457
N      1.817800224283    -0.960883413662     1.416555788835
C      1.351189650177    -1.968185809308     2.081112981112
O      0.229947846274    -2.613419300906     1.737937392857
C      2.011016256288    -2.493024463110     3.288698359392
H      3.039523425534    -2.791344269484     3.024779698871
H      1.993092977181    -1.709352587664     4.064597114954
H      1.453352005497    -3.377005555202     3.651841650747
N     -0.306096478901     1.256270747851    -1.376240479547
C     -0.718183030267     0.845453276894    -2.619122280586
C     -1.579402660158     1.627032667914    -3.360947448419
C     -2.032629171154     2.829760860164    -2.870895780159
C     -1.584147856921     3.239533686615    -1.645097271988
C     -0.690311790461     2.424181874099    -0.918330800585
H     -0.365783629174    -0.091026636891    -3.032718053261
H     -1.902837425375     1.285136614857    -4.330599238034
H     -2.716637721473     3.445495614163    -3.448988459868
H     -1.880636563811     4.176308685946    -1.216597530933
O     -0.310733815411     2.944972184205     0.225240231490
H      0.533588371931     2.512628501998     0.686643355205

