# STO-3G

title

0 1
C      2.350234166935     2.385519821750    -0.402311412462
C      3.757662571742     2.454835898862    -0.473372167952
C      4.375970705725     3.527592145218    -1.150870556164
C      3.595289692908     4.540987073727    -1.739721478957
C      2.190917924900     4.477027122860    -1.651852639948
C      1.566363380321     3.405373634769    -0.979777908838
H     -2.669041325382    -1.742275835322     2.046505647881
H      4.374592860248     1.679899730475    -0.021619840308
H      5.461345855271     3.567947603214    -1.212798575975
H      4.073483975172     5.369940078506    -2.255599707095
H      1.577097470419     5.254946255708    -2.100872406190
H      0.480136782228     3.363431289611    -0.931420069737
C      1.873541995670     1.173485236031     2.604731485040
H      1.369301879200     0.285580197060     2.973031499935
H      2.930905620612     1.278429709121     2.828770949698
C      1.164890441524     2.276960685069     2.119311443315
H      1.670278669208     3.215909236191     1.962909722744
C     -0.285215980521     2.312660196755     1.889152406287
O     -0.841893264169     3.437580452181     1.799027932407
O     -0.821769332610     1.198664847862     1.225578455172
C     -2.072651602451     1.389030602726     0.548832610492
H     -2.386785194788     0.427475613167     0.083806389705
H     -2.868656386869     1.711755822558     1.254658924429
H     -1.971686577665     2.141414819021    -0.265358363224
Pd     1.594015599970     0.729526688828     0.427886460027
C      0.007929870928    -1.805071572694     1.034207694654
O      1.120805217872    -1.196544296441     1.297402246608
O     -0.591565541283    -1.761201367846    -0.112594301767
C     -0.688768922673    -2.500344256287     2.225898681506
H      0.020549438092    -2.524702513974     3.056508813947
C     -1.176186302388    -3.897810059773     1.914493383950
H     -1.664549492097    -4.326213097612     2.813895371596
H     -1.917127632684    -3.857910043417     1.089473487189
H     -0.324034854337    -4.542193205310     1.617217282526
N     -1.842367397765    -1.685090570464     2.628567902799
C     -1.686461693017    -0.646600611728     3.497653302346
O     -0.593234227201    -0.287886046092     4.001381323444
C     -2.914103781024     0.076850315590     3.898870078636
H     -3.027225061779    -0.051532351913     4.988034673455
H     -2.767914112693     1.141487864038     3.657620787449
H     -3.798665278571    -0.325588809617     3.375424207159
N     -1.080824731732     0.729200663280    -2.556489359233
C     -1.570861506462     1.451474942751    -3.611638789088
C     -0.699650915613     2.066193977285    -4.494748506608
C      0.665054199525     1.940747491177    -4.331384479443
C      1.125580579085     1.191406122881    -3.280198980673
C      0.186101285055     0.602404550967    -2.406505694542
H     -2.641786861421     1.553127278656    -3.742697181785
H     -1.094674177428     2.641559748113    -5.315464052417
H      1.356336697039     2.419981526038    -5.019330125260
H      2.170754694838     1.051114012879    -3.093707059733
O      0.727619249650    -0.126999498576    -1.396826471427
H      0.056758179936    -0.855393822141    -0.926730127011

