# STO-3G

title

0 1
C      2.425094873522     2.913550993529    -0.595925262758
C      3.539624348831     2.119042488430    -0.931965207530
C      4.754749462582     2.735329477637    -1.298013652972
C      4.861908598043     4.139324294354    -1.329877685294
C      3.746246703316     4.930076096971    -0.994254171604
C      2.529815609194     4.321096234645    -0.619654744860
H     -2.847434664445    -0.166694682224     2.161780293108
H      3.455220612549     1.036384402949    -0.929521800028
H      5.610253505375     2.117351095723    -1.563842864301
H      5.799679793102     4.610552077949    -1.615175410519
H      3.816648381385     6.015769019043    -1.021315149753
H      1.675932552986     4.948411836293    -0.366315808211
C      1.325864492530     1.462111819181     1.792088081809
H      0.713580017393     0.581247858438     1.957951675400
H      2.385953471789     1.288510568442     1.649710995974
C      0.823417776433     2.766602670429     1.950589256505
H      1.501570165107     3.604184958509     1.887633216061
C     -0.500923217744     3.081848857103     2.513792632887
O     -0.898368446087     4.275711383138     2.470419260799
O     -1.196302864485     2.104845820211     3.246636517531
C     -2.525526664701     2.456998563611     3.651801721231
H     -2.978810303919     1.604895230407     4.202411898403
H     -2.515049698553     3.343560332956     4.325455217715
H     -3.162216230163     2.668623016077     2.762963791156
Pd     0.652694088915     2.112121709357    -0.181379604318
C     -1.996815903101     0.616975874341    -0.510967807706
O     -1.295789508533     1.318366200657     0.315360896442
O     -2.020534855602     0.801162628016    -1.793714277207
C     -2.784856118828    -0.579746179517     0.082388359546
H     -2.483197420337    -1.459238915679    -0.496903007742
C     -4.284464212002    -0.410917694094    -0.023589240122
H     -4.785696284917    -1.313025385700     0.384319764625
H     -4.600478722006     0.472097725579     0.567753133394
H     -4.582229856935    -0.276313830075    -1.083957290015
N     -2.438607654328    -0.795607629774     1.481509298531
C     -1.287292164822    -1.441565455603     1.823673337041
O     -0.486268802753    -1.972450266878     1.018403723144
C     -1.017395003955    -1.520325534411     3.276050933845
H     -0.075660563231    -2.073744134132     3.432736573932
H     -0.933219023467    -0.490649474285     3.661694432540
H     -1.862693398351    -2.046554954101     3.751230291467
N      1.326158809981    -0.484505021944    -1.188142741916
C      1.711677961278    -1.798838571226    -1.186923080014
C      1.577477531093    -2.556095351272    -2.339293211722
C      1.031784255026    -2.003813518263    -3.480664370593
C      0.628957695565    -0.692467198293    -3.439921501613
C      0.803330763158     0.025852551328    -2.236513728619
H      2.134425670035    -2.236327024198    -0.290058054117
H      1.885443085712    -3.588244834296    -2.330422284093
H      0.914754055146    -2.595830270138    -4.384331705701
H      0.186279479092    -0.202262750194    -4.282838452282
O      0.319875051199     1.313971324672    -2.225385565875
H     -0.774013144364     1.244145449507    -2.220998571272

