# STO-3G

title

0 1
C      1.065633375176     2.903820611655    -1.652666658254
C      2.365205991526     3.048045471520    -2.183782293547
C      2.571239556250     3.833084375251    -3.338945789589
C      1.486242110487     4.481552712742    -3.959054736451
C      0.190850534031     4.342885185707    -3.422835782898
C     -0.021905572417     3.559995670812    -2.268910278072
H     -1.594155123835    -0.768276888195     1.604627166227
H      3.212933762818     2.542845056623    -1.723444931844
H      3.574741276269     3.934104807467    -3.746719239057
H      1.647398867720     5.089091660347    -4.846184857562
H     -0.652729360745     4.841331718386    -3.895784848300
H     -1.029928328192     3.459627548864    -1.869258062905
C      1.806830980225     2.831057533537     1.326315331827
H      2.039223850405     2.108787811214     2.106596991355
H      2.642258324712     3.235547787705     0.763362238584
C      0.531494110901     3.412356126081     1.186940794509
H      0.395147341552     4.220855687170     0.484678631673
C     -0.584623026535     3.239749778802     2.135866670684
O     -1.681349089499     3.798210616083     1.873491878418
O     -0.409621729095     2.472194143003     3.298009965555
C     -1.510851127663     2.466285697335     4.218530913591
H     -1.283111263629     1.784455347125     5.067401483776
H     -1.690120305002     3.485696899436     4.627133168136
H     -2.440488610424     2.098809017298     3.730202171629
Pd     0.736236581649     1.632008871871    -0.150008891115
C      0.701748110036    -0.251392556187     2.408237096276
O      0.260573981679     0.043481409781     1.175003358479
O      1.822854293722     0.073859009890     2.864819152694
C     -0.342767513476    -1.021862885731     3.253379943069
H     -0.387761138109    -0.569982587659     4.249984959567
C      0.008640102851    -2.486450020750     3.401335087675
H     -0.739818172877    -2.978933580050     4.056345083307
H     -0.015551814303    -2.972646765747     2.404801273822
H      1.016595372610    -2.597280230351     3.851896739619
N     -1.650258081482    -0.923388980613     2.607489658941
C     -2.785941993456    -0.679885159118     3.305695695688
O     -2.860846158086    -0.591755864752     4.555251459034
C     -3.999263566465    -0.493615996563     2.482231112830
H     -4.856773701112    -0.311037627443     3.153106156928
H     -3.829200965177     0.372918775045     1.822096002044
H     -4.155505848453    -1.412993377991     1.892126707308
N      1.350070436720    -2.018289147650    -1.999589064831
C      2.082573398713    -2.668744480288    -2.956201895641
C      2.360014165980    -2.037997361031    -4.158777432902
C      1.893149559391    -0.760604180989    -4.402982232026
C      1.159156162857    -0.139754051223    -3.423714721371
C      0.920284881165    -0.841031518749    -2.224656092361
H      2.447085698488    -3.671843270393    -2.767561424952
H      2.937331972107    -2.555115680916    -4.907472618204
H      2.098751428716    -0.262160438645    -5.346612209030
H      0.751369765101     0.842783063842    -3.552511350562
O      0.184054020437    -0.160327797956    -1.292394646705
H      0.094344522328    -0.658101669859    -0.423455745375

