# STO-3G

title

0 1
C      1.293121677440     1.886125453449    -0.825993870107
C      0.449097014028     2.227952478665    -1.918099816754
C     -0.040810034011     3.558128158891    -2.043737917608
C      0.309646684069     4.525824644676    -1.095736677639
C      1.140280149179     4.182570914315     0.004050847784
C      1.623695288547     2.876240396106     0.143114002904
H      1.759698617916     0.909080194041    -0.730799644818
H      0.226802299858     1.503083137374    -2.696160642716
H     -0.682330138320     3.811835706017    -2.882991860036
H     -0.060047891709     5.543404906823    -1.196502473618
H      1.398278824684     4.938939690256     0.741402137897
H      2.250198061688     2.576157955039     0.976833513532
C      1.095247805033    -1.752909699129    -1.219299751356
H      2.160986983068    -1.970250442416    -1.224582204172
H      0.749341153606    -0.974990083846    -1.893866810715
C      0.226021798449    -2.382111824052    -0.398128618924
H     -0.813267566583    -2.086752286343    -0.394902410516
C      0.581200255242    -3.438964655631     0.562593815859
O      1.706714965443    -4.004866609328     0.498994142487
O     -0.401089424635    -3.865504214284     1.476251566174
C      0.028512419212    -4.838791794666     2.438215491691
H     -0.818426189557    -5.095527982661     3.109659421500
H      0.366879201192    -5.772259540689     1.933162308044
H      0.858847042154    -4.434387084259     3.061681523521
Pd    -0.785180109757     0.953896721439    -0.130381333556
C     -3.113177928550    -0.282356390828    -1.275102720746
O     -2.016337004887     0.448290348577    -1.635042348837
O     -3.916784675890    -0.719076015780    -2.111766063438
C     -3.291942816706    -0.526235018814     0.271535678405
H     -3.487270175937    -1.597893269508     0.419150405382
C     -4.453053968680     0.274626255042     0.819658650604
H     -4.589968821673     0.057120750485     1.897443938026
H     -4.249193185810     1.358280375441     0.693251653339
H     -5.386433170368     0.011766270738     0.278655410578
N     -2.076331456468    -0.082239494618     0.926848728873
C     -1.422138780920    -0.304650344270     2.039210037548
O     -0.258500920972     0.278008261110     2.161812142115
C     -1.945001376009    -1.193663531463     3.085257153110
H     -2.887675364058    -0.767179937522     3.463842928730
H     -2.107667368712    -2.188919405343     2.638187972757
H     -1.198110828241    -1.261094144681     3.897259979768
N      3.245687791508     0.164939802442     1.015546753143
C      4.474714578609     0.387819247321     0.452753174842
C      5.458710368334    -0.580987624686     0.526820087704
C      5.215207680833    -1.775801137336     1.171845286333
C      3.984987760067    -1.964685531165     1.743356201559
C      3.016926748092    -0.943024083574     1.636207225697
H      4.667861360168     1.321454988534    -0.062617048493
H      6.417755069181    -0.399954620249     0.070883225904
H      5.977701669962    -2.548238415754     1.223261425036
H      3.715462541158    -2.877650958172     2.235488784404
O      1.851691762984    -1.246527845260     2.221017478910
H      1.134646705605    -0.541320522454     2.181145579412

