# STO-3G

title

0 1
C      1.657902263583     1.551531762582     0.983051652902
C      0.403949026674     1.951516095072     1.522110122564
C      0.081415733383     1.656537723940     2.871717685272
C      1.005984589201     0.981359372586     3.680086151575
C      2.257877280617     0.580836366940     3.151180234768
C      2.578269269224     0.858249308079     1.818308263116
H      1.953932790057     1.854949040882    -0.017222211675
H     -0.283349076128     2.541962209217     0.920458626164
H     -0.881385159315     1.963060106915     3.271103890656
H      0.759851115156     0.755525936565     4.714750632424
H      2.964513441241     0.044057610090     3.778312598907
H      3.530099147869     0.533042154087     1.408778084241
C      0.560619591660     1.104761799379    -2.899681463538
H     -0.063386047633     0.434749349295    -3.488544556036
H      1.574288678612     0.781069616335    -2.693766832760
C      0.084112488384     2.277167198732    -2.417228441309
H      0.734291890711     2.906004642303    -1.820635883458
C     -1.288662559770     2.771382130925    -2.614125913188
O     -2.067945712201     2.177423335317    -3.412022771627
O     -1.659718927295     3.978986197860    -1.994736221084
C     -3.026864408547     4.374042096716    -2.171912784517
H     -3.207925071525     5.327609842331    -1.631440105413
H     -3.256076694909     4.534854035993    -3.249781252019
H     -3.715062018921     3.602112361103    -1.757562249104
Pd     0.124959383966    -0.028191815792    -0.002586332865
C      0.996236323948    -2.720004292005    -0.480854288895
O      1.396188941023    -1.600463174258     0.171572266767
O      1.649153000369    -3.780315940996    -0.440027302407
C     -0.307872815569    -2.587866465931    -1.358435125737
H     -0.980107387055    -3.414883962358    -1.087877666962
C      0.037450615742    -2.677746375878    -2.831086691732
H     -0.869159197884    -2.536074568779    -3.451620808111
H      0.775501664565    -1.888690068344    -3.084715461147
H      0.479331288203    -3.670615771553    -3.057151696214
N     -0.891951919805    -1.289712057928    -1.092376139321
C     -2.008548999466    -0.608377293014    -1.252581568811
O     -2.041358729940     0.582941458299    -0.720673425733
C     -3.162530905745    -1.127731803128    -2.001027881616
H     -3.317109041450    -0.457233367548    -2.865422704009
H     -2.961269565565    -2.157600224938    -2.332945931260
H     -4.040083055803    -1.099215106272    -1.332832966251
N      3.484928043593    -0.137982309924    -1.701709012619
C      4.125733559454    -1.290227187764    -1.333212752057
C      5.377386255907    -1.220803978972    -0.743939634207
C      5.975742354134    -0.000661829424    -0.509630722184
C      5.299449616908     1.139042889972    -0.872572772734
C      4.021494036979     0.992982563330    -1.476700955630
H      3.665318567771    -2.251505303898    -1.524938981579
H      5.872788262397    -2.134351125409    -0.458454268906
H      6.952512090801     0.055700080968    -0.036447712066
H      5.708365719107     2.108201630110    -0.680139675954
O      3.310695742064     2.138055593004    -1.773510951393
H      3.830754949556     2.960183248503    -1.750978759519

