# STO-3G

title

0 1
C      2.651389179295     0.095175177883     0.540224067728
C      3.728724434943     0.683180378052    -0.181672640542
C      4.479860922589    -0.090489924860    -1.072571583003
C      4.175929012156    -1.465909052118    -1.261980206559
C      3.122869302348    -2.060552703788    -0.557123733604
C      2.351523572607    -1.283694123745     0.352672149997
H      2.114078582811     0.626615109147     1.317854353970
H      3.961197622820     1.735560316533    -0.044038970218
H      5.295393557792     0.361937370607    -1.630731109486
H      4.765862559427    -2.055273853249    -1.959534308857
H      2.894645147085    -3.114483132669    -0.691650288435
H      1.600761921728    -1.737528461344     0.992421499748
C      0.801817317692     3.002551792763     0.378306853378
H      0.705121087599     3.016612005546    -0.703634451873
H      1.819332261091     2.968381801100     0.756447346476
C     -0.250380468212     3.008593984412     1.228197316440
H     -0.089907244798     2.959347692975     2.295904976280
C     -1.665830924386     3.013008813202     0.824900658265
O     -1.971225892753     2.991215777558    -0.400964234923
O     -2.652608377725     3.121519311220     1.819178716858
C     -3.995750961383     2.855213319188     1.393468496857
H     -4.681812265228     2.952325181202     2.261785411415
H     -4.317447136788     3.579033242639     0.611239448848
H     -4.083992161758     1.815092762281     1.002322226007
Pd     0.823650699029     0.064297710149    -1.016782005901
C     -2.023265887268    -0.343264404319    -0.631463103754
O     -0.822573265243    -0.549183050244     0.011748252798
O     -3.104636698220    -0.620411300869    -0.096735227121
C     -1.919550815830     0.270681400546    -2.071114248643
H     -2.599662301741     1.134180797495    -2.105603638522
C     -2.342709956265    -0.730367361185    -3.124503566973
H     -2.300274986295    -0.261369340501    -4.127977416533
H     -1.655441063718    -1.601302129635    -3.105918657746
H     -3.380261702095    -1.074497377229    -2.930339968146
N     -0.536673920282     0.620533573189    -2.312259333156
C      0.132836937125     1.525550236031    -2.995945485893
O      1.416996130045     1.585138147146    -2.783542547047
C     -0.538682408649     2.447437014262    -3.923259483776
H     -1.033471692553     1.849204953697    -4.705132923556
H     -1.273838851392     3.030010244433    -3.340624464631
H      0.220085886469     3.116873496139    -4.366591123112
N      1.015253801449    -0.191606881176     3.194736082713
C      1.923945140125    -0.220863109110     4.218585114210
C      1.605144516203     0.336087035532     5.444513795428
C      0.369575817365     0.915334990999     5.649780730522
C     -0.524298192158     0.922145833309     4.611151885755
C     -0.148486519780     0.332619006872     3.384559897271
H      2.897587138148    -0.669711378801     4.059937107730
H      2.328919803477     0.311712305743     6.242094509262
H      0.111314562770     1.353416743067     6.610082329023
H     -1.504618889326     1.348526100448     4.694319398427
O     -1.095457430877     0.397148710395     2.445052213050
H     -0.885578143121    -0.068274629994     1.577428571398

