# STO-3G

title

0 1
C      2.113429335684     0.617985467236     0.735162418191
C      2.713457393639     1.773531719826     0.153371334818
C      3.546648673154     1.649073849234    -0.961892623812
C      3.813330481934     0.369455445050    -1.519359420565
C      3.245983418374    -0.778751254476    -0.955860263800
C      2.387018149009    -0.665331235354     0.173809577142
H      1.547909783323     0.687316617948     1.662825093994
H      2.507584892483     2.753562777726     0.575819505123
H      3.987239122311     2.534996764617    -1.411288263567
H      4.459373135526     0.286019191788    -2.389318290214
H      3.457724774039    -1.760121288427    -1.371246947102
H      2.021498593597    -1.556048090264     0.678941527046
C     -0.480201761966     2.388390725214     1.837880429966
H      0.419263970983     2.906957370509     2.167337003450
H     -0.750250508635     1.518347163524     2.426634285498
C     -1.161566022468     2.754879950753     0.729056719034
H     -2.036049360924     2.192608426158     0.429801246990
C     -0.785869146071     3.856711110636    -0.171614597166
O      0.240259355091     4.549271178013     0.069291879617
O     -1.571268460069     4.084382176823    -1.316985938869
C     -1.064246279620     5.065910733827    -2.232147140286
H     -1.759916012485     5.165247854678    -3.092420774771
H     -0.976845695016     6.060896257734    -1.738988653548
H     -0.067166784242     4.758502958711    -2.624227128467
Pd     0.253804728926     0.165778547075    -0.673373691596
C     -2.298651022195    -0.760559017220     0.339308918928
O     -0.972729847596    -0.738606103098     0.674597487980
O     -3.179796511292    -1.137489563651     1.122109856613
C     -2.623205906669    -0.266582701941    -1.120677957930
H     -3.458886349741     0.443960370150    -1.043509097359
C     -3.034606843543    -1.424601401702    -2.004738959188
H     -3.322200777899    -1.052898169879    -3.008030287318
H     -2.185047898087    -2.130871334370    -2.111001333935
H     -3.900975184587    -1.957089327219    -1.558707739255
N     -1.427044584878     0.331412441477    -1.669432697705
C     -1.033451093640     1.142930345605    -2.624834818729
O      0.239406359570     1.443974526940    -2.627492745169
C     -1.963392469273     1.705663524731    -3.612920162477
H     -2.402371921788     0.874710299937    -4.187393076692
H     -2.736597878177     2.269385739985    -3.064427473148
H     -1.397212689838     2.380324895581    -4.279631373312
N      0.791494762576     0.075809232955     3.720114232657
C      1.338307974636     0.679722724713     4.820668707963
C      1.911049000023    -0.086322545159     5.819885892271
C      1.934411850849    -1.461978325529     5.719612398712
C      1.374739826464    -2.041651708189     4.611083733414
C      0.798144512785    -1.211415142217     3.624497583842
H      1.327251634078     1.760343638879     4.901537408163
H      2.341786370604     0.399456524392     6.679544696513
H      2.383294695703    -2.070319653727     6.500106600713
H      1.350562417862    -3.102702974583     4.466728985505
O      0.283302527253    -1.884803709511     2.588428824923
H     -0.277984097931    -1.355181087158     1.928575931306

