# STO-3G

title

0 1
C      1.428554644853    -1.313206965777     0.484648464019
C      2.767791922504    -0.842039694981     0.613466427501
C      3.774164815559    -1.400874976196    -0.182606595835
C      3.472762028418    -2.434584670921    -1.106579456051
C      2.160744192546    -2.906945394377    -1.237411128242
C      1.124136891342    -2.351633639952    -0.441205768408
H      0.643123181096    -0.953685339914     1.146304601237
H      2.985415814110    -0.050540886944     1.326789851483
H      4.795224418439    -1.039687041180    -0.093315013898
H      4.265966101238    -2.860480317014    -1.716105274987
H      1.926737600287    -3.702531488748    -1.939320396935
H      0.117657791723    -2.756529910091    -0.489831624202
C     -0.249593738121     1.892903635396     1.121003431306
H     -0.286322571701     2.546704553504     0.254994869155
H      0.741187887679     1.729619668907     1.532957297670
C     -1.355515115848     1.325881726793     1.660172195808
H     -1.267377209974     0.684461037216     2.526923325493
C     -2.723494203659     1.504485380849     1.146957372511
O     -2.929917467297     2.257292687350     0.154237709762
O     -3.780735715407     0.853992046375     1.804913475330
C     -5.063355261516     0.945759621449     1.169092473523
H     -5.812745906585     0.387740802315     1.770181830978
H     -5.395178636786     2.005740380010     1.093250975708
H     -5.032930763199     0.491698995107     0.151916460136
Pd     0.396637868791    -0.122744292357    -1.293600289492
C     -2.404423251941    -0.203438289892    -1.897145276512
O     -1.447701646073    -0.921607659316    -1.236498580045
O     -3.600343047936    -0.538061368669    -1.879270974079
C     -1.892491429632     1.061805007212    -2.687757919331
H     -2.514533637426     1.916250840250    -2.384572311809
C     -2.029532818605     0.858499814805    -4.181758587074
H     -1.712309908293     1.773892284482    -4.719314118412
H     -1.387479766158     0.011587362822    -4.500628049842
H     -3.086219935659     0.637549223715    -4.441183782068
N     -0.485995548617     1.244368681959    -2.379495168996
C      0.404140163653     2.214893712382    -2.347826970464
O      1.560592123687     1.938412905202    -1.817643755071
C      0.094442902993     3.560413835730    -2.854136929817
H     -0.125771706631     3.479614513681    -3.930685401621
H     -0.779158055354     3.939619232113    -2.296805978667
H      0.972289281426     4.210522067495    -2.687870463440
N      2.550503049275     1.388690487016     3.132809615357
C      3.398204453770     2.426592548831     3.413700494824
C      3.297347913118     3.090460079046     4.624312958511
C      2.347083058227     2.712902763278     5.552980623559
C      1.514391578222     1.668145239607     5.241548173189
C      1.670312198784     1.032269374942     3.994311629806
H      4.143125329491     2.726578328733     2.685866356913
H      3.966450117911     3.907546503621     4.838519482920
H      2.260628073305     3.230529158576     6.504644811990
H      0.751170328591     1.320046432129     5.908319074341
O      0.792941800832     0.024756788331     3.770936531841
H      0.958591200232    -0.390500386725     2.899048992775

