# STO-3G

title

0 1
C      2.476401221263    -0.130081934777     0.663142933685
C      3.606386605835     0.458930601398     0.023546520115
C      4.353851631969    -0.271653712258    -0.904532630821
C      4.001179114316    -1.612805984373    -1.212481545710
C      2.908063049568    -2.217109757878    -0.581867066083
C      2.135826166751    -1.481855042984     0.360608211282
H      1.947039060194     0.393745632101     1.458089506448
H      3.886233944263     1.480565680466     0.263668959557
H      5.206766597909     0.186824182296    -1.397688787276
H      4.587184134967    -2.170579436532    -1.938418948223
H      2.646340305954    -3.249154266402    -0.798587693472
H      1.353739708179    -1.974681260812     0.932300996646
C      0.770614687266     2.795458734704     0.577272121198
H      0.417991215406     2.309172979434     1.484526944619
H      1.834794844255     2.701940999485     0.372082733101
C     -0.021520422540     3.439223595115    -0.309381184002
H      0.396199289219     3.829409250964    -1.228880040375
C     -1.475646714014     3.598998608419    -0.161681626239
O     -2.138387589910     4.022643284702    -1.147221325454
O     -2.112489654397     3.146989248083     1.006603139814
C     -3.543496442935     3.237495328006     1.027260644472
H     -3.919961763686     2.833900528137     1.992341152804
H     -3.875740735903     4.295661450401     0.934080198219
H     -3.992876089454     2.630312227332     0.209933377958
Pd     0.664595071955     0.012464127321    -0.899830219421
C     -2.159047260921    -0.002631527511    -0.223304055710
O     -0.938448165802    -0.327647672730     0.306450936100
O     -3.211528358731    -0.079459467909     0.423183662528
C     -2.121679026768     0.469086478367    -1.723856825033
H     -2.711409919333     1.394198917200    -1.788926673448
C     -2.735040640932    -0.572736191905    -2.635264009612
H     -2.751160459975    -0.200028006187    -3.678737906128
H     -2.132632303997    -1.503717567402    -2.593922045150
H     -3.775754292645    -0.793361190188    -2.317336565507
N     -0.739391021969     0.653222861377    -2.104554770359
C     -0.007027897375     1.273506678417    -3.000885948290
O      1.287151400509     1.155931865689    -2.864800060149
C     -0.602834462377     2.100136636823    -4.059135046195
H     -1.224561045697     1.450424300958    -4.695347961295
H     -1.214040772499     2.881928687233    -3.574667254302
H      0.211209265926     2.556443700509    -4.650448286330
N      0.722722870692     0.953188040520     3.296489155665
C      1.291508457728     1.716218241011     4.281058212685
C      1.406471058033     1.218568764917     5.566268717436
C      0.944203358613    -0.044909693401     5.870156329128
C      0.368666661728    -0.783411411802     4.869800494159
C      0.268277815885    -0.223030356936     3.576784121838
H      1.662016014612     2.707109551062     4.046047158225
H      1.860046197646     1.825645467685     6.331834786354
H      1.030940819790    -0.443156974014     6.877434605162
H     -0.020538606232    -1.768027197183     5.032733978232
O     -0.314512368159    -1.033862776859     2.687542480597
H     -0.599486949043    -0.637928544453     1.795826974233

