# STO-3G

title

0 1
C      3.152156840193     0.500927929585     0.634468664528
C      3.796941662760     1.600857236862     0.002121384911
C      4.762258642529     1.381496930650    -0.986982139547
C      5.103789873594     0.061087645231    -1.376941920470
C      4.480982914963    -1.032746412220    -0.765891595701
C      3.505011953205    -0.824868516537     0.248734945066
H      2.448928123674     0.660778250845     1.449338818483
H      3.536852751030     2.615255658501     0.289204737245
H      5.248903296832     2.227930807328    -1.465028032384
H      5.849551807751    -0.097814130231    -2.151717310668
H      4.742383652073    -2.047915149565    -1.052216732166
H      3.093028862081    -1.677425702644     0.779766705564
C      0.771119459306     3.146090117809     0.814767771246
H      0.819640918539     2.962387917416    -0.256688014677
H      1.416334552607     2.537540036023     1.440657420210
C     -0.073440996288     4.037066394422     1.389432344513
H     -0.085621934808     4.147403737152     2.465484417785
C     -1.044302337988     4.874399548568     0.663326179566
O     -1.255608427794     4.673809927523    -0.563223018540
O     -1.810353179424     5.799206250083     1.393773455047
C     -2.773211022214     6.550139130887     0.640588436685
H     -3.309216630600     7.247721699496     1.319744060833
H     -2.273709589753     7.151824029584    -0.152469107973
H     -3.525095515953     5.873989369348     0.173794489472
Pd     1.301231757493    -0.320938291604    -0.698734961564
C     -0.547969664003    -2.378739275026     0.020521394890
O      0.768247124535    -2.052723754506     0.173925711877
O     -1.037449446426    -3.393528249473     0.547503853182
C     -1.412370606600    -1.398478310328    -0.868583156353
H     -2.214872322236    -1.000114982268    -0.230823660333
C     -2.022002048612    -2.122981744867    -2.048699343045
H     -2.670225307397    -1.432922895733    -2.623952922152
H     -1.212813173198    -2.495524515751    -2.710454587101
H     -2.633491762435    -2.980225685663    -1.696978329744
N     -0.540640185294    -0.352293497898    -1.372327785875
C     -0.624573942706     0.887355757742    -1.805872415248
O      0.502592568593     1.547577876158    -1.880416222069
C     -1.908214805299     1.519166320299    -2.135164130780
H     -2.356784538190     0.972295224797    -2.979389969438
H     -2.548866692630     1.475715719815    -1.238245911258
H     -1.718843468163     2.573475416905    -2.412089175373
N      0.241943794447     0.049083917297     2.525522397863
C      0.661450828253    -1.018116263359     3.276009735699
C     -0.258895968446    -1.929004988129     3.760690244831
C     -1.600578131417    -1.788857251530     3.473802534852
C     -1.993116073100    -0.712002555734     2.719999260607
C     -1.006823576250     0.183022808236     2.257057158665
H      1.716040314176    -1.143078002245     3.491842687410
H      0.083043225374    -2.774607210404     4.333861405724
H     -2.325515755191    -2.514946471260     3.831655019258
H     -3.017193731667    -0.539974169287     2.459454251967
O     -1.498306079512     1.179175634092     1.484210276780
H     -0.784655403173     1.796772478635     1.191800513395

