# STO-3G

title

0 1
C     -0.681968274580     2.256464111713    -1.358561016232
C     -1.038312859820     1.658203240210    -2.597822384346
C     -2.368994458807     1.313123804012    -2.849539437466
C     -3.369599494563     1.555576903502    -1.873839524065
C     -3.036281434409     2.143893088163    -0.648681725266
C     -1.687217461391     2.503320165341    -0.378688973398
H      0.333215989561     2.610739400968    -1.210372752562
H     -0.258700266979     1.451289562506    -3.323749663794
H     -2.637451376569     0.839750565342    -3.789863594785
H     -4.398943033814     1.271777209845    -2.076756559636
H     -3.801422090136     2.333851963211     0.098969964974
H     -1.445779444621     3.061326626651     0.523729078782
C      2.836677227317     2.955649365895     0.108154393407
H      2.500144420222     2.521285842351     1.045473275254
H      2.118019933497     3.595881141854    -0.403813621556
C      4.049992850057     2.716537099289    -0.448828784356
H      4.299271282536     3.148387026304    -1.410436243914
C      5.104873216324     1.880860186273     0.150760942555
O      6.209615825230     1.783934965859    -0.446965455402
O      4.905117812447     1.294160579795     1.415606278443
C      6.003791029372     0.525444373101     1.924949847985
H      5.737793009788     0.114568884797     2.921904762591
H      6.236991539964    -0.324940071488     1.245136582409
H      6.909833796829     1.162377276064     2.043637051085
Pd    -0.365213386468     0.536917786264     0.279887631055
C     -0.541970456497    -2.226499162984    -0.431477181782
O     -1.090424412452    -1.025963763356    -0.764384150715
O     -0.790645367734    -3.268999247630    -1.064888447834
C      0.430435303268    -2.232620048735     0.814985429972
H      1.390755120057    -2.650652583268     0.479145662102
C     -0.121921688687    -3.090090717899     1.932808193367
H      0.597449235758    -3.128384951184     2.774144866946
H     -1.077875642974    -2.655679173033     2.292123894680
H     -0.302695254642    -4.122920576540     1.567777547986
N      0.552874517687    -0.870306183238     1.296913457467
C      1.382934938145    -0.120616871820     1.985084952400
O      1.166828174853     1.169924758679     1.950095273818
C      2.524138893745    -0.684059533045     2.715944379198
H      2.139525390581    -1.382903250740     3.475282310120
H      3.171059574328    -1.193407990951     1.981893479658
H      3.074663594631     0.146160913585     3.194376835968
N      3.673286203177    -0.796143054031    -1.007597370390
C      4.238483557097    -2.043516010085    -1.001765496974
C      3.629595028637    -3.082941215043    -1.683952562318
C      2.469565859927    -2.865975833117    -2.402208046603
C      1.943395570755    -1.600577158710    -2.411687922399
C      2.597892840113    -0.590084709379    -1.680194509421
H      5.150932373834    -2.218067261617    -0.443978679292
H      4.073324535243    -4.064785406494    -1.664670015806
H      1.981969609183    -3.676098082628    -2.938862561449
H      1.034030298457    -1.362421876017    -2.930907317441
O      1.992264855704     0.617299491429    -1.740893617996
H      2.461079845463     1.276964741304    -1.173143528152

