# STO-3G

title

0 1
C     -0.476158608584     1.148783503981    -1.823222147549
C     -0.748040928647    -0.000582931580    -2.617653765558
C     -2.037579272619    -0.538452958402    -2.667753898079
C     -3.087275006651     0.053171789276    -1.921211045163
C     -2.840715015687     1.181689699619    -1.128389811431
C     -1.536173875808     1.740905824516    -1.078698440094
H      0.494749260488     1.633266844724    -1.891423055938
H      0.057859530821    -0.459842940043    -3.179380909839
H     -2.233366618382    -1.417939235163    -3.274739218530
H     -4.086526965546    -0.372712391284    -1.963158948452
H     -3.642676571282     1.643778843331    -0.559467400225
H     -1.367877457059     2.671381727140    -0.540417261646
C      2.881742761765     2.107953394698     0.540739439167
H      2.241828362503     1.233339860046     0.479211202425
H      2.373172628087     3.069583597047     0.540460114685
C      4.228460703248     2.000837567649     0.617054221185
H      4.847470780783     2.888275500988     0.630312312577
C      4.955926275916     0.721621219970     0.680609550036
O      6.213522955974     0.742812123354     0.616679987314
O      4.265343703785    -0.455103832261     1.025225109707
C      5.027878878671    -1.667826223348     0.949923439106
H      4.376923844466    -2.532394586838     1.203241515846
H      5.414685295671    -1.824630841875    -0.082518024602
H      5.879360202891    -1.647660397148     1.666892868849
Pd    -0.103084068831     0.457457429182     0.461552379880
C      1.216497367852    -2.052166007183     0.867742946390
O      0.494266468456    -1.397448560947    -0.082846019210
O      1.802627122392    -3.122482958588     0.626663389162
C      1.251890264002    -1.387741692288     2.297815525441
H      2.298818834096    -1.373452554352     2.630882184748
C      0.421212056470    -2.178458480326     3.285979030021
H      0.473827479130    -1.709489815723     4.288803665034
H     -0.636674009332    -2.192266457512     2.950633097057
H      0.798688967194    -3.220319017178     3.353043868443
N      0.683356071932    -0.061919369980     2.180008782149
C      0.671853602972     1.103276415846     2.788168077640
O      0.083517301264     2.082274831837     2.151203571627
C      1.314700481069     1.331729085976     4.089904682740
H      0.535929701997     1.672201151966     4.792888568041
H      1.780587648189     0.398150057667     4.443540413680
H      2.081271494500     2.114668411701     3.954527853569
N      2.996510517391    -0.280469039044    -1.913747309924
C      2.945932168271    -1.601197542573    -2.272010858141
C      2.763824484106    -1.946013139466    -3.601843462030
C      2.622275272032    -0.968957469653    -4.567038488151
C      2.656467754290     0.344519558686    -4.171329060434
C      2.846659041321     0.628642200623    -2.803091667039
H      3.071415931322    -2.371034299683    -1.521737166159
H      2.729641785570    -2.987775896268    -3.874289399371
H      2.477514203767    -1.233902903388    -5.610820398636
H      2.542149786772     1.158020732019    -4.858581832085
O      2.843758056198     1.954768689023    -2.503608988300
H      3.038436199433     2.086147822443    -1.544474273157

