# STO-3G

title

0 1
C     -0.094435760159    -2.192602242640     1.407530422399
C      1.228611569571    -2.485405324903     0.977281781351
C      2.301263373470    -2.455540612114     1.907978983438
C      2.053107582814    -2.152010575350     3.251590930628
C      0.735699717533    -1.855461972288     3.687330424973
C     -0.327327609612    -1.869153780172     2.775241132411
H     -0.958282548442    -2.290729860768     0.749820982029
H      1.418339324082    -2.799861168900    -0.045816709002
H      3.309937932823    -2.666421129621     1.565526592874
H      2.874594787247    -2.133034540230     3.963398786234
H      0.554918615035    -1.611765063752     4.731494582573
H     -1.342024740483    -1.641940088427     3.089804659560
C     -0.946086856769    -2.102262833749    -2.047212215355
H     -0.558761974880    -3.100025655640    -1.852808936250
H     -1.986402291026    -1.930802424969    -1.795755879428
C     -0.185803880132    -1.101177038114    -2.550103926400
H     -0.629614684605    -0.127162376120    -2.703800241665
C      1.237625957680    -1.210179144220    -2.907549214457
O      1.844236921954    -2.303632890716    -2.748118231842
O      1.903922978831    -0.057407363721    -3.358918576215
C      3.320407602187    -0.192162808771    -3.548436297668
H      3.746885169870     0.782977743281    -3.867985867800
H      3.822013880850    -0.484445492710    -2.596372030310
H      3.546577258690    -0.950261184816    -4.331643835626
Pd     0.460120090418    -0.138169071700     0.343659957171
C      2.672423341077     1.443967511952    -0.575385236652
O      2.405841294938     0.252440996439     0.030364458359
O      3.822360433970     1.769164596266    -0.913144239286
C      1.432966639646     2.385910624269    -0.816724952736
H      1.448589699546     2.684910333966    -1.874617732646
C      1.513811952961     3.619597585739     0.057507664957
H      0.678684351807     4.308926390110    -0.172563648636
H      1.456285259730     3.320864799724     1.124988452548
H      2.472378223217     4.150741281592    -0.121567693613
N      0.237820980737     1.640490506506    -0.463463397820
C     -1.057904230751     1.708028561265    -0.639704041836
O     -1.758242318131     0.721439706444    -0.155914303509
C     -1.692824360492     2.802691616792    -1.385945904195
H     -1.532556319496     3.739607214252    -0.828955424810
H     -1.230611876175     2.850138857008    -2.386177476129
H     -2.775089143902     2.593140356560    -1.471454387728
N     -3.206839580570    -2.382182033629     0.643821103862
C     -3.527704421931    -3.581716372165     1.222427957477
C     -4.709378932008    -4.218563346821     0.889495595797
C     -5.576004600548    -3.653017524468    -0.022133161428
C     -5.234519238733    -2.449416619015    -0.581760648956
C     -4.018311139591    -1.839822605750    -0.201327665198
H     -2.847808367334    -4.033244181098     1.935771300992
H     -4.949012112948    -5.163902362466     1.347682257042
H     -6.505535100832    -4.148567176620    -0.289288317145
H     -5.859304774960    -1.950152265513    -1.294439439430
O     -3.790746566633    -0.674257926793    -0.818339914372
H     -2.983274160385    -0.146780126629    -0.509333369741

