# STO-3G

title

0 1
C      2.329137737950    -1.158664994086    -0.963843093936
C      2.400134697320    -0.437654708214    -2.191103211887
C      3.292557895949     0.628154008078    -2.336191032223
C      4.140366574199     1.000820506492    -1.260446769760
C      4.091335294162     0.299978865167    -0.050582378524
C      3.189678494268    -0.788381012127     0.106666627509
H      1.723857551933    -2.059032616404    -0.906233614409
H      1.760683744563    -0.730028895679    -3.017784727993
H      3.338859696412     1.172561407089    -3.275598890940
H      4.832070767575     1.830649719035    -1.381662949246
H      4.745704404819     0.571476874571     0.773055267910
H      3.208360240728    -1.375315337270     1.019426979750
C     -1.005681456206    -3.019239808296     1.278534005691
H     -1.206705430061    -4.085996782797     1.352913570538
H     -0.043909719161    -2.672869707044     1.650144556471
C     -1.904109580471    -2.129814771049     0.782182252782
H     -1.636347189922    -1.089046765031     0.703261473430
C     -3.240273346270    -2.466274683927     0.262071529258
O     -3.599849637441    -3.672572706701     0.190281966909
O     -4.104612447104    -1.422138266476    -0.113758109717
C     -5.367933368310    -1.823299275351    -0.661666184847
H     -5.958881015481    -0.920110293464    -0.924925045315
H     -5.222556113768    -2.425639961112    -1.587236271209
H     -5.950125242277    -2.417528080955     0.078857523165
Pd     0.885967135829     0.042944686023     0.560297905225
C      0.601307845593    -0.217853813816     3.397615707194
O      1.241388409842    -0.813610558545     2.348536349380
O      0.865029421034    -0.498043353692     4.576924124231
C     -0.503120260260     0.841195716099     3.018982539804
H     -0.227901826681     1.781179881263     3.521433065816
C     -1.867545160589     0.397928379735     3.506469878416
H     -2.647167236407     1.121391608013     3.198681867507
H     -2.116287160681    -0.593549251566     3.079778556823
H     -1.866686350948     0.319304150049     4.613905805327
N     -0.532988180220     0.976245718240     1.569290736393
C     -0.867241614583     1.891781008047     0.674293865602
O     -0.403686839100     1.729725913022    -0.529343532324
C     -1.725685335891     3.044935935469     0.989885996162
H     -2.641544794320     2.950384692716     0.382012427264
H     -1.970010861861     3.054625994556     2.062430490224
H     -1.176005316643     3.961364671036     0.713052947313
N     -1.123605067343    -1.129707651470    -1.993034591760
C     -1.517590893537    -0.102388965402    -2.808376717022
C     -1.353833455118    -0.211262563986    -4.180012974726
C     -0.795265583701    -1.347078685135    -4.732110205814
C     -0.404616992825    -2.355237194632    -3.887787514947
C     -0.597718362446    -2.184047176356    -2.501266914515
H     -1.970311681545     0.784497538571    -2.381969301788
H     -1.668060263412     0.600694887072    -4.814303905167
H     -0.665787259768    -1.438363389635    -5.807143699136
H      0.038196360986    -3.265329511351    -4.239407621750
O     -0.169314276525    -3.222736916377    -1.744520772331
H     -0.437648634393    -3.100973614613    -0.799428069203

