# STO-3G

title

0 1
C     -1.015672897281    -2.416329178808     0.886375179665
C     -2.143999547521    -1.549052675543     0.987011389236
C     -2.556567796617    -1.056070638152     2.252923242269
C     -1.856045675762    -1.428023640057     3.406044818690
C     -0.739472957238    -2.297922606181     3.317683811245
C     -0.324277413583    -2.787279893910     2.076150653972
H     -0.772129930444    -2.880606019902    -0.072207632281
H     -2.744711067975    -1.343135061844     0.103016811666
H     -3.414849186772    -0.392935497169     2.319835523825
H     -2.161020149117    -1.041565001861     4.375184100303
H     -0.197691552468    -2.570474925392     4.219573457236
H      0.532054454302    -3.453389026651     2.010442018298
C      2.280610802202    -2.282715803738    -0.397263538776
H      2.447837490414    -2.025215253961     0.646276786165
H      1.451946027161    -2.949482015160    -0.617393686234
C      3.032221865305    -1.793052131497    -1.411406326042
H      2.782027184592    -2.062934767893    -2.428951912099
C      4.155698131837    -0.855263223824    -1.255978859097
O      4.443301737863    -0.397710989546    -0.117777710378
O      4.759460667412    -0.339779366573    -2.416937938654
C      5.826695020444     0.595721755600    -2.204824757909
H      6.232945394439     0.921640603894    -3.186638627636
H      5.463104538334     1.497043173090    -1.660897952327
H      6.654594654602     0.126310127041    -1.625838942726
Pd    -0.150773494952    -0.360985976971     0.107098814813
C      1.500396215024     1.491375289784     1.526620508486
O      0.620170240908     0.473884339510     1.755718051682
O      2.096405754985     2.067232321032     2.450982371701
C      1.706406652247     1.914111994364     0.016663069090
H      2.782701361499     1.846642029734    -0.196921053226
C      1.236867838018     3.333567527644    -0.221382979241
H      1.457513383163     3.639331784731    -1.262442193597
H      0.143188677155     3.395483990959    -0.044705194931
H      1.758483996005     4.027299234561     0.471183790601
N      0.919100325422     1.015759820392    -0.808695266008
C      0.770250934607     0.640732328332    -2.048589432884
O     -0.052490859671    -0.366610869436    -2.249013149272
C      1.494078703278     1.266947139164    -3.161502406035
H      1.159782298751     2.313395043153    -3.244286851934
H      2.573757930871     1.211258755819    -2.944636399609
H      1.261667445423     0.715796730375    -4.091066401913
N     -0.399059675484    -3.985632539889    -1.912045078717
C     -0.752332583502    -5.266397850143    -1.576207749884
C     -0.441642254686    -6.316380225109    -2.420161681002
C      0.218671956839    -6.086353934325    -3.608398905253
C      0.550724404895    -4.795507064071    -3.926327336807
C      0.203995923390    -3.758817370090    -3.031530072783
H     -1.266195311365    -5.454752234441    -0.640578506150
H     -0.719362756531    -7.319868347547    -2.142615753492
H      0.466851554619    -6.906870621175    -4.276344233564
H      1.058325882727    -4.542113481297    -4.835024725268
O      0.581301862998    -2.548973922424    -3.455174631883
H      0.273843644657    -1.744723438082    -2.922287663412

