# STO-3G

title

0 1
C      0.305239889749    -2.033252050869     1.515239004705
C      1.716355029848    -1.862225505944     1.568678624913
C      2.330649102536    -1.432651917656     2.778973173283
C      1.547609322253    -1.185070598633     3.911956862984
C      0.137818770744    -1.344195185751     3.855036477221
C     -0.481253091963    -1.755932342021     2.668392969767
H     -0.190915281508    -2.435417030639     0.635586256073
H      2.336424269240    -2.133612105926     0.718703443003
H      3.408943092855    -1.307158161129     2.811158040632
H      2.018119816286    -0.864356089241     4.837956481378
H     -0.463969876506    -1.140458749329     4.737349479472
H     -1.557227932324    -1.869163058290     2.587285606499
C     -1.333779881552    -1.251817930453    -2.166849974584
H     -1.300567267344    -1.868794319145    -1.272500769761
H     -2.311620951174    -0.827899206130    -2.380973136045
C     -0.259832390943    -0.995411743992    -2.947349811674
H     -0.356662934989    -0.355939870510    -3.814162669994
C      1.095933170650    -1.509034425427    -2.699831878540
O      1.315567201888    -2.243330845564    -1.698297539248
O      2.127141127736    -1.125894364444    -3.573118701663
C      3.451962180124    -1.520302595047    -3.188079430164
H      4.181092111722    -1.142375557871    -3.936366688012
H      3.724795818119    -1.083971039432    -2.199670882645
H      3.538895438475    -2.628937982958    -3.139620521997
Pd     0.629772380142     0.063943664064     0.406201081060
C      2.504804138230     1.525240063250    -1.208691017545
O      2.434063012238     0.433450573704    -0.394350385924
O      3.537990238115     1.810832875070    -1.833046169502
C      1.197717544482     2.398223688051    -1.297032283035
H      0.973914893333     2.550718113303    -2.362032260984
C      1.396011571107     3.740801028025    -0.625831801372
H      0.491466485836     4.367709593336    -0.748549567648
H      1.587402394816     3.588458216147     0.456896515750
H      2.260961141653     4.269268798030    -1.079206026661
N      0.145246894377     1.683307957598    -0.601642737701
C     -1.159674409226     1.675217465598    -0.518230323023
O     -1.689374781995     0.766493799467     0.255336431588
C     -1.997962599405     2.597930673464    -1.295369823747
H     -1.779210369065     3.625907711466    -0.965003695534
H     -1.755968965529     2.461415509917    -2.362390363317
H     -3.060464216209     2.355790387327    -1.108029444737
N     -2.785659158863    -2.643732330711     0.494352687390
C     -2.896804307825    -3.994449173891     0.690774623193
C     -4.076500304268    -4.645561217012     0.379026251870
C     -5.149427129707    -3.943841371980    -0.129015268452
C     -5.012519859576    -2.592693511715    -0.314693123820
C     -3.786392423531    -1.977499628817     0.023196771849
H     -2.055693976637    -4.550465627556     1.088527329611
H     -4.151704047753    -5.708807624301     0.536183997953
H     -6.079174281840    -4.449307225955    -0.375848396600
H     -5.803875134914    -1.984144153673    -0.702481392466
O     -3.769961722246    -0.661556507798    -0.211771922787
H     -2.919583551676    -0.161992702128     0.025695879874

