# STO-3G

title

0 1
C      2.693173005928    -0.387102282440     0.535479270495
C      3.649284388492     0.555787765601     0.052219344748
C      4.435699085842     0.260173529449    -1.064840090048
C      4.296138083304    -0.989037457228    -1.726613756164
C      3.372848885844    -1.934751565993    -1.265654542985
C      2.564371999769    -1.639751908990    -0.133378753754
H      2.166164877941    -0.210785015873     1.477516263032
H      3.758533271859     1.510511067682     0.560068558030
H      5.150806701205     0.988930338822    -1.437445432087
H      4.908331763168    -1.207209003367    -2.598144478969
H      3.270913964394    -2.894406220479    -1.765242747463
H      1.907777734550    -2.401604497947     0.279710319605
C      0.485316612246     2.435130338363     0.899344370935
H      1.005495427726     2.919160091598     0.075003302352
H      1.080322778589     1.820131373728     1.567761607630
C     -0.847889311297     2.552861445287     1.108418290011
H     -1.306496513868     2.008357891913     1.923103110728
C     -1.769407697175     3.338162055970     0.271577741719
O     -1.338037138782     3.951265162402    -0.743215561723
O     -3.146075400005     3.273987695379     0.547846822604
C     -3.999191074243     4.036052980935    -0.317440850396
H     -5.055187229014     3.912320600706     0.006909172250
H     -3.745703852941     5.119437391975    -0.268355368729
H     -3.914913882187     3.682303320657    -1.369563946647
Pd     0.781418151901    -0.105822180240    -0.836788329563
C     -1.947115065400    -0.725047999689    -0.120593534273
O     -0.669063475388    -0.879569969155     0.366454271003
O     -2.935982315967    -1.172492170189     0.473341182373
C     -2.079587255515     0.079063552659    -1.470101680212
H     -2.777245288082     0.906556853475    -1.275771065809
C     -2.638942099120    -0.794391283481    -2.573471580380
H     -2.804753401570    -0.191812684732    -3.487870321881
H     -1.922288498392    -1.610396500362    -2.800794212925
H     -3.608145670165    -1.234737918866    -2.257594391116
N     -0.764944841596     0.531971200213    -1.858156041824
C     -0.142184808042     1.345307241688    -2.679963441099
O      1.166086097810     1.349456259528    -2.588809715215
C     -0.850788184406     2.196506756252    -3.644501525056
H     -1.385823596216     1.547013286934    -4.354145443757
H     -1.547657645197     2.838358363827    -3.080697046246
H     -0.106315838126     2.817845851176    -4.173964641863
N      1.431423604452     0.140872167595     3.376028525828
C      2.396464746487     0.445109453879     4.298824493766
C      2.041665099372     0.735890131655     5.603214531985
C      0.717323625750     0.715691561336     5.988109575552
C     -0.226857275124     0.399219341833     5.046914815968
C      0.190388556402     0.104819791622     3.730448564400
H      3.438012778540     0.466526604973     3.999897881376
H      2.808236858435     0.977899196634     6.320491880508
H      0.430178308660     0.942357019468     7.011363581301
H     -1.273422665331     0.356942198954     5.274030143225
O     -0.819628149766    -0.186619515604     2.908796011199
H     -0.603636089609    -0.497397325390     1.975200734866

