# STO-3G

title

0 1
C     -0.395784531825     0.129996135759     2.475754361500
C     -1.439461624732    -0.746908818863     2.881980239333
C     -2.748403342401    -0.266165186219     2.999932171153
C     -3.041449481402     1.093296168029     2.714298161721
C     -2.021794828101     1.967398184600     2.318300057575
C     -0.684062392947     1.497168894578     2.197821956676
H      0.631611425848    -0.216332684678     2.430660900866
H     -1.218391089975    -1.789932227749     3.091674150727
H     -3.546963912606    -0.937676727997     3.304237438040
H     -4.062835246148     1.453763227066     2.806516913580
H     -2.240508583974     3.011982514311     2.114260950564
H      0.146286152903     2.169384120726     2.004796284088
C      1.605335182368    -2.068934857379     0.577029878281
H      1.164654965355    -2.156104550239    -0.410552809486
H      0.952184116001    -2.329267282992     1.405433738603
C      2.880747737965    -1.674382039046     0.787946636254
H      3.265272494720    -1.599507683507     1.797148090535
C      3.828916967681    -1.298435977171    -0.273385361202
O      5.045792815922    -1.156372669064     0.021252450236
O      3.389429098121    -1.219069511944    -1.609946926483
C      4.349746186137    -0.703967651843    -2.543732820955
H      3.901757442208    -0.669794466186    -3.559036740248
H      4.649818176175     0.333140815765    -2.265487951633
H      5.253901197517    -1.352968343570    -2.583332583712
Pd    -0.481256070464     0.304907335207     0.079429454964
C      1.418874898007     1.420627355775    -1.749321922171
O      0.965880892560     1.592510487093    -0.476406158255
O      2.408220442317     2.041697609153    -2.178098607955
C      0.602061409559     0.413472621388    -2.647001598775
H      1.321009620833    -0.270674409935    -3.119229084701
C     -0.167441310471     1.149252719965    -3.723629528313
H     -0.716304096954     0.427981352423    -4.361311409612
H     -0.898267776065     1.837268630539    -3.249939311349
H      0.530165303645     1.735139389304    -4.358185833723
N     -0.346195075918    -0.269404159196    -1.790802506700
C     -1.086640811814    -1.356524671050    -1.747868706973
O     -1.706886110301    -1.589477115910    -0.622477019789
C     -1.202776020968    -2.290207178057    -2.878133254345
H     -2.265309713302    -2.325600491763    -3.172584696593
H     -0.576150789151    -1.943160533678    -3.714810710113
H     -0.867820703792    -3.283638958698    -2.532494469601
N      2.605520389624     1.765064300503     2.237695904491
C      3.206556335773     2.484002518005     1.237471368623
C      4.557274611128     2.313668030052     0.985863724464
C      5.303409704323     1.424736318598     1.733975775166
C      4.673020465658     0.731228611301     2.736753922847
C      3.294690946880     0.942251573423     2.932852611253
H      2.629317950672     3.192035475435     0.654980196873
H      5.015606350701     2.865090139001     0.182016981840
H      6.358495317231     1.269321592687     1.526020807187
H      5.183745060746     0.012229598782     3.343656909954
O      2.744271486074     0.158286906406     3.901874958106
H      1.791040713912     0.367547052927     3.990435427587

