# STO-3G

title

0 1
C      1.513272870548    -0.606671441168    -1.205910259116
C      2.227432092527    -0.488306217784     0.021862246658
C      2.981088468242    -1.589348121941     0.517868218952
C      3.019713515564    -2.786832070177    -0.205941122824
C      2.319719407504    -2.905729098753    -1.437167154780
C      1.578236405906    -1.829643381565    -1.933680738901
H      1.045305517760     0.288777192905    -1.605671562681
H      2.267690858163     0.480127216203     0.513146540669
H      3.527480239730    -1.492391418225     1.452270246451
H      3.586878275930    -3.633344126766     0.172973190626
H      2.356047143133    -3.841731920078    -1.988511992515
H      1.044622787663    -1.920101341497    -2.877018875933
C     -1.989012790066    -0.359342058879    -1.929918974134
H     -1.747811479228    -1.367675870314    -2.259326872738
H     -2.519236246372    -0.280480110618    -0.985452125253
C     -1.651280947085     0.757567269036    -2.614549291613
H     -1.887415395608     1.729793324032    -2.205416145672
C     -0.922281823923     0.780222300834    -3.892941304865
O     -0.516609633254    -0.297534177182    -4.408877048443
O     -0.696701423684     2.018763135339    -4.518051723513
C      0.092867370621     1.984688869832    -5.714113971238
H      0.212492105044     3.018700135437    -6.102565301419
H      1.106230369211     1.573458523861    -5.505455900247
H     -0.403816394090     1.370213371455    -6.498693982405
Pd    -0.119911488359    -0.971037415361     0.487721353355
C     -1.804406621062     0.973220763043     1.821603621666
O     -0.694698737731     0.917320564257     1.013583600103
O     -2.276923392299     2.044166525396     2.223906628045
C     -2.455437321879    -0.412226963701     2.189939827449
H     -3.520343805782    -0.344281465422     1.922461892248
C     -2.331606166283    -0.695392236067     3.672268310369
H     -2.859268286653    -1.635711712568     3.925965364050
H     -1.260220860561    -0.796333978491     3.943617005568
H     -2.780947596824     0.133939040050     4.258439462869
N     -1.757314683279    -1.444318288425     1.460281163154
C     -1.849461852090    -2.707322559564     1.112427440663
O     -0.862811009435    -3.172373369370     0.389906038333
C     -3.000389144613    -3.544245167446     1.477012026911
H     -3.029871245367    -3.631358401811     2.574808965466
H     -3.911717522095    -3.059912974968     1.089500319879
H     -2.867290116105    -4.541103074510     1.018260287322
N      1.221947860029     2.434060319343    -1.727536041081
C      2.170203170326     2.755964464309    -2.661597935026
C      2.139973025357     3.990355678052    -3.285524131949
C      1.156080307832     4.905993593304    -2.973164853066
C      0.227035687785     4.564441138516    -2.025544252841
C      0.309374864924     3.292856047669    -1.417315511342
H      2.938494051564     2.035388000874    -2.916493567259
H      2.888513849505     4.231671159905    -4.020888727047
H      1.121498911164     5.875568837001    -3.462116722282
H     -0.563191653635     5.223881483193    -1.729040911128
O     -0.649916500500     3.064413946418    -0.516258990576
H     -0.560505405126     2.221944527045     0.030995057084

