# STO-3G

title

0 1
C      0.092296916497    -2.180051417072     1.543927849165
C      1.512552236655    -2.144333463812     1.485759231880
C      2.262712148395    -1.914313638660     2.673516506812
C      1.604182775636    -1.729397168404     3.894405633570
C      0.185950929099    -1.751901110309     3.951367653943
C     -0.564277402219    -1.966879841921     2.788354138986
H     -0.521975706622    -2.423984791932     0.681975363547
H      2.035968840236    -2.361953635532     0.559237353054
H      3.347389698638    -1.887289996595     2.620107685654
H      2.178815351818    -1.559301388768     4.801569536155
H     -0.318304845950    -1.595836861248     4.902172407464
H     -1.649710622854    -1.975619165280     2.801452153873
C     -0.992062686559    -1.310724720499    -1.949770352479
H     -1.390778952277    -0.360463630353    -2.299852146871
H     -1.648804330161    -1.880407992605    -1.301143166524
C      0.246504116630    -1.750105567350    -2.272498087554
H      0.597605302349    -2.701144624735    -1.894672291560
C      1.208744989345    -1.015737676460    -3.110512376731
O      0.934976285571     0.151204097846    -3.508580536329
O      2.417247335259    -1.644718460792    -3.453941405187
C      3.361776301951    -0.838843259486    -4.172492813409
H      4.273655560514    -1.438208423074    -4.381070685233
H      2.937240253375    -0.497876726525    -5.143476344140
H      3.666525995984     0.046223075740    -3.569191736085
Pd     0.551653887304    -0.016187620348     0.600657117383
C      2.545448273398     1.383956475518    -0.924479613908
O      2.379491984627     0.242325907280    -0.195378065274
O      3.619834819912     1.649286451066    -1.487143144777
C      1.292810039379     2.335692415728    -1.005716395161
H      1.084482750132     2.515975628342    -2.070395721697
C      1.566281883996     3.655847535003    -0.317842267274
H      0.693671797278     4.329531200403    -0.426133501951
H      1.754528755710     3.478676134847     0.761344602077
H      2.454849575834     4.144280221365    -0.770217516387
N      0.192699768569     1.680783835688    -0.319381666275
C     -1.115994450203     1.709779168606    -0.349632740177
O     -1.737458479055     0.811728762861     0.366699645915
C     -1.856005110887     2.667645758565    -1.182635810215
H     -1.619997055356     3.685040909106    -0.831393787149
H     -1.537217193698     2.525298587265    -2.229652258163
H     -2.938503934126     2.467802355710    -1.080144804794
N     -2.963885328380    -2.597232323895     0.523343845266
C     -3.177996610321    -3.927396517731     0.770976776161
C     -4.389056136811    -4.508329330508     0.443143045195
C     -5.392841546198    -3.756789449224    -0.130664677467
C     -5.156483070691    -2.426876678263    -0.361679480340
C     -3.903740274903    -1.881883673753    -0.002398590182
H     -2.391380773685    -4.523826060298     1.218535451557
H     -4.544705219679    -5.556346143231     0.639378807821
H     -6.346775124386    -4.207189089630    -0.391704980413
H     -5.890525374847    -1.781896682788    -0.800869201107
O     -3.792945433085    -0.580741334037    -0.280814463190
H     -2.949964559446    -0.101317746385     0.015730142547

