# STO-3G

title

0 1
C     -1.455054619076    -0.230610943119     2.300831452261
C     -0.273046590193    -0.013100036512     3.063186670444
C     -0.121588486415     1.189551811205     3.808622887246
C     -1.136954533826     2.152057526207     3.803417341426
C     -2.320618152767     1.932846912935     3.052302835886
C     -2.478578561566     0.758457890107     2.307736294764
H     -1.613715197148    -1.172770901484     1.784432722871
H      0.482439467928    -0.787837459255     3.143891225336
H      0.784851953200     1.345411243925     4.387151525735
H     -1.022377838376     3.068947158278     4.376308012966
H     -3.108374130470     2.682184990158     3.055131059919
H     -3.383835047419     0.588712687087     1.733483241372
C     -3.364210514185    -0.850278790000    -0.643182062260
H     -4.208610084101    -0.342685163749    -1.103765578206
H     -2.451293936679    -0.259665052113    -0.597222037041
C     -3.436338002060    -2.115849941220    -0.160624326986
H     -2.548369171988    -2.577305773026     0.252889638267
C     -4.646014680849    -2.956068961527    -0.179409965715
O     -5.719198744889    -2.508038747798    -0.666624305371
O     -4.569789925177    -4.257390412482     0.346779386828
C     -5.779902312387    -5.026277462125     0.296085884921
H     -5.597488945368    -6.029616742302     0.737723400640
H     -6.588369726382    -4.530837477573     0.880355013378
H     -6.116480890057    -5.165555303725    -0.756417884419
Pd     0.269418317729     0.317940901476     0.671617635608
C      2.862428336735    -0.805206754316     0.182662965263
O      1.963597457486    -0.640022427915     1.195871124318
O      3.910324126561    -1.456581752319     0.335778468176
C      2.494013806211    -0.119752834579    -1.188653075329
H      2.524025132086    -0.901073226243    -1.962451075058
C      3.489929066764     0.964334833805    -1.539469443855
H      3.250788954659     1.394351747988    -2.531906710776
H      3.443631165811     1.768922443092    -0.776428626147
H      4.517465485251     0.544654560074    -1.568471299891
N      1.182184170811     0.486962710158    -1.055089355080
C      0.173763297534     0.816812531278    -1.833077420072
O     -0.949817171398     1.113848645835    -1.239100014892
C      0.288739834563     0.824813358333    -3.297628922717
H      1.060546040642     1.558736292212    -3.579498807738
H      0.562852735931    -0.193215128930    -3.622546948090
H     -0.688572635435     1.110996580759    -3.726407091926
N     -0.178231023843    -2.736021596767    -0.042160095963
C      0.701335067899    -3.390572999427     0.780264004766
C      1.753166152926    -4.104994955438     0.236782009647
C      1.939068755784    -4.152649523950    -1.128303646528
C      1.047595294535    -3.482675088471    -1.927345119336
C     -0.011900949038    -2.780422038451    -1.316202144501
H      0.571197672358    -3.344008939776     1.855154288603
H      2.452651826320    -4.596156616790     0.893626975237
H      2.772839972635    -4.701864923755    -1.557449166629
H      1.121362876850    -3.485486134976    -2.995704083527
O     -0.820886552158    -2.150611880981    -2.196674246752
H     -1.565169406217    -1.684380752329    -1.752835781716

