# STO-3G

title

0 1
C     -0.290190266926    -1.377427228642     1.904112005432
C      0.902475226473    -2.161909716484     1.879382218905
C      2.027437666292    -1.758881876320     2.630903336540
C      1.947331560764    -0.658466500419     3.540454941801
C      0.779632314754     0.105275651368     3.592123307197
C     -0.306424493085    -0.201897002421     2.710280964386
H     -1.163581015751    -1.660385080437     1.312521510408
H      0.959759830196    -3.048349715427     1.255056973269
H      2.952886692031    -2.323292950712     2.550586144423
H      2.802977715761    -0.411539632222     4.161507803956
H      0.702000705203     0.957193707273     4.261284910344
H     -1.196856917834     0.415841374470     2.693309657265
C     -1.066984777780    -1.119286543891    -2.489397581592
H     -0.774123205901    -0.590400675360    -3.393236719736
H     -2.097791642736    -0.999593282747    -2.165741239705
C     -0.210249662172    -1.873960316965    -1.764909680336
H     -0.575971094806    -2.350037364795    -0.866503710836
C      1.208625510225    -2.079682800055    -2.089446072377
O      1.908933237839    -2.780897207095    -1.310071682039
O      1.746856165569    -1.518499179884    -3.261857643827
C      3.172389618954    -1.602340063747    -3.395693062878
H      3.483292337726    -1.103662251802    -4.338406133467
H      3.679135222880    -1.078890445260    -2.552434489392
H      3.507229553597    -2.663257508378    -3.429982671400
Pd     1.061382522310     0.096182212370     0.678910861372
C      2.283959183497     1.564500181818    -1.462581107631
O      2.453644675300     0.458317643014    -0.695211238004
O      3.086787117866     1.895527186776    -2.350312537929
C      1.008571638936     2.383774693601    -1.103044627154
H      0.580911625387     2.745191276195    -2.047184487611
C      1.349066365095     3.572316982382    -0.228766259788
H      0.431831169100     4.152745613422    -0.003370166009
H      1.789551390373     3.217617001346     0.725932217358
H      2.077035240278     4.231869107035    -0.746557806901
N      0.092666040000     1.513489312600    -0.345526079999
C     -1.234152325182     1.459941967108    -0.369732299976
O     -1.916618063339     0.652524422315     0.348715977923
C     -1.967852751761     2.361192626762    -1.286644711035
H     -1.713970226972     3.404105963212    -1.036126099888
H     -1.685535212321     2.107923986581    -2.321979861628
H     -3.054552866320     2.202458629272    -1.153692913257
N     -2.733848629585    -2.716866279022     0.358670876106
C     -2.743198186380    -4.076211046441     0.522020021076
C     -3.800101598073    -4.826400690950     0.040071353771
C     -4.855104462635    -4.215066952539    -0.603456833579
C     -4.825484868868    -2.852811288045    -0.749236916027
C     -3.723210385773    -2.133015330870    -0.236044197147
H     -1.914668440886    -4.562004443949     1.024168875691
H     -3.793870588923    -5.895710666822     0.171062663942
H     -5.688968456803    -4.798481712073    -0.984367337154
H     -5.611824173998    -2.311102160973    -1.234061916272
O     -3.803248871108    -0.818147616942    -0.444572923660
H     -3.037366612110    -0.241337609438    -0.080273737816

