# STO-3G

title

0 1
C      0.543093937133     2.162208863515    -2.012865925969
C      0.082680601421     1.053462826732    -2.778188911146
C     -0.963161860894     1.235036853856    -3.726144840509
C     -1.531956315419     2.502284855476    -3.901981671581
C     -1.066102677190     3.611392912583    -3.145373848991
C     -0.036606435420     3.447150656710    -2.213511844121
H      1.411748137663     2.011027934317    -1.382824585061
H      0.618435134545     0.113343443295    -2.685742595130
H     -1.309919201335     0.389208416522    -4.313789683734
H     -2.335857638722     2.642980020533    -4.620249982219
H     -1.520035893553     4.588473100008    -3.288181693535
H      0.319198511797     4.296814137730    -1.636691287365
C      1.392820111201     2.528156977026     1.355295427910
H      2.236338527282     1.866024527891     1.530658711318
H      1.485211830274     3.217152548144     0.520482020290
C      0.250745693499     2.472315891718     2.077228198090
H     -0.592281539380     3.099549488023     1.817684274923
C      0.036214879159     1.561382513311     3.213179543614
O     -1.104655439894     1.517065783738     3.749348251018
O      1.082523632323     0.733548350528     3.654678858872
C      0.742147063464    -0.246820289546     4.643824307341
H      1.648760434420    -0.837226774235     4.898289275202
H      0.367145110511     0.238442560382     5.572770884954
H     -0.023029444209    -0.954152101300     4.252383825108
Pd    -1.024949527887     1.004563930138    -0.601355751587
C     -0.725980799989    -1.304839956642     1.135779496980
O     -0.056552020024    -0.635271364282     0.140920751088
O     -0.239906137622    -2.281612816228     1.721086625339
C     -2.149389372318    -0.738915732325     1.487249147666
H     -2.201993299310    -0.643416961997     2.581072994597
C     -3.240347903616    -1.678483856589     1.018513444104
H     -4.231831636779    -1.289004646961     1.323552071560
H     -3.209943188233    -1.761292391221    -0.087579047520
H     -3.096783493844    -2.683987314228     1.467005480942
N     -2.302521420758     0.521791271446     0.799578857117
C     -3.019539675170     1.621246516974     0.855584067645
O     -2.732798325033     2.537152528744    -0.032516675170
C     -4.064043192788     1.826294075638     1.868265018085
H     -4.837331999588     1.054668173115     1.729107107902
H     -3.591327250565     1.740572453164     2.862166698952
H     -4.493370153675     2.834973959755     1.732151701083
N      2.992415347499     0.293671660995    -1.539241471198
C      3.929024898464     0.648923449481    -2.472801041218
C      5.269973800791     0.677660275067    -2.133634914497
C      5.676297583384     0.340924829026    -0.858783364388
C      4.719097367154    -0.017991103361     0.053845620854
C      3.365431817577    -0.035120706152    -0.348050101188
H      3.613840667386     0.918528001310    -3.474091870392
H      5.998253455265     0.962094075060    -2.874753541428
H      6.727920002925     0.358291822301    -0.585712303062
H      4.957554908613    -0.299161576862     1.060071424961
O      2.521105618026    -0.398791166950     0.621268865952
H      1.556158799712    -0.505473316861     0.347413084321

