# STO-3G

title

0 1
C      1.394044212975    -0.159257699287     2.977533120979
C      1.614360951379    -1.548966696839     3.198098542493
C      0.778129798019    -2.259598681356     4.104371175138
C     -0.253920141345    -1.592287011435     4.773123231171
C     -0.474528402657    -0.206796214719     4.551378745594
C      0.338794326190     0.504814980754     3.664367433797
H      2.082886655309     0.414190825644     2.367832069634
H      2.467808300260    -2.044092068904     2.743449217544
H      0.952223035625    -3.318531775799     4.273911459421
H     -0.895479197336    -2.135916498230     5.461885435221
H     -1.287016359160     0.298552310290     5.066598512158
H      0.163657863130     1.557266848593     3.465860421321
C      3.152432262003     1.225498996975    -0.534484565189
H      3.217746836908     2.268608627262    -0.835342891489
H      2.508204015321     0.596317044113    -1.139200493703
C      3.846979427353     0.690225107906     0.499917039734
H      3.727179141184    -0.363439517537     0.710713059763
C      4.770632857018     1.433504791773     1.373666131565
O      4.905236348073     2.678958044314     1.231263245525
O      5.385169242378     0.749365396167     2.436458358043
C      6.222232188922     1.540321563462     3.291653530976
H      6.652860631116     0.893050339363     4.085791357931
H      7.062438017714     1.991185158112     2.716244838538
H      5.634242335025     2.348436330591     3.783283346061
Pd     0.437723108097    -1.218961205876     1.063231406539
C      1.858133819701    -2.321202813510    -1.168324799439
O      2.085150527006    -1.874983478698     0.102889847091
O      2.745994308505    -2.864568295962    -1.844180711923
C      0.398327932678    -2.104749188423    -1.733009909816
H      0.028081854642    -3.097061102717    -2.030935650187
C      0.400618285069    -1.191253147996    -2.940952516550
H     -0.607731171067    -1.160554136850    -3.397099164997
H      0.691015225528    -0.167140876872    -2.633916514171
H      1.120022360352    -1.563124490453    -3.700500535169
N     -0.405550277803    -1.517417867461    -0.681955009365
C     -1.647363331389    -1.203277238254    -0.377674149423
O     -1.874591456512    -0.846671798789     0.857787577716
C     -2.731947849388    -1.251281739147    -1.368285987376
H     -2.522837721777    -0.486693583229    -2.134157696818
H     -2.755981198556    -2.264097657828    -1.802060005181
H     -3.683672150262    -1.023249804739    -0.855528338281
N      0.057711697092     2.206997793443    -1.570392483110
C     -0.824091188205     2.497113722533    -2.577137346578
C     -2.173825973794     2.630517204716    -2.298287353693
C     -2.637278939384     2.497206889656    -1.004125920713
C     -1.728301406742     2.221965237934    -0.016641684838
C     -0.369540644529     2.088076905049    -0.365377965520
H     -0.463917772205     2.605356185500    -3.593516879828
H     -2.861374467326     2.855157152323    -3.097057808734
H     -3.694603515697     2.600022110310    -0.775082242598
H     -2.014675387055     2.072240781612     1.006453265896
O      0.445031111232     1.807174031452     0.679296746841
H      1.378112714775     1.677307969606     0.379655186603

