# STO-3G

title

0 1
C      0.769161137430     3.458077750148     0.569861935515
C      1.548984909018     4.602406919180     0.208548236125
C      1.068002348952     5.554063102814    -0.692772615222
C     -0.190767096811     5.379022814953    -1.317850131149
C     -0.965310645910     4.255635176716    -1.003173647287
C     -0.510877976977     3.296044932391    -0.056212703860
H     -3.408434036189    -0.907231525582    -0.174299492139
H      2.520968450859     4.737617178812     0.678977801570
H      1.670546787653     6.429129296767    -0.925273463540
H     -0.553224617775     6.114849125967    -2.031022978655
H     -1.944851855890     4.120751387060    -1.455330620824
H     -1.202571654726     2.545815684400     0.311733777464
C      1.285537232391     2.564457720547     1.631555752086
H      1.811047984417     2.721072734122    -1.751956587726
H      2.368212720419     2.607897219815     1.757310845975
C      0.537569595179     1.739158679398     2.405708519012
H     -0.534397551569     1.674413664031     2.281419377160
C      1.093321090110     0.841780455916     3.430403363889
O      2.327902086864     0.868203710179     3.695758788780
O      0.227396589112    -0.051684023176     4.088613913440
C      0.843493915525    -0.947031212960     5.023556691731
H      0.065405614510    -1.599077010542     5.474542100709
H      1.590581047375    -1.595779084709     4.512356683099
H      1.342172692414    -0.380707994233     5.842381030690
Pd     0.775050180070     1.715768957875    -1.257445671281
C     -0.503643714854    -0.555690768151     0.381341553955
O      0.659934922068    -0.885566285706     0.840756604472
O     -0.721388036709     0.263159388062    -0.583476729147
C     -1.731111527440    -1.155002146572     1.115782580375
H     -1.592234786655    -0.934244906207     2.179801372488
C     -1.843214086598    -2.654323630257     0.942658514645
H     -2.719058374114    -3.025720734246     1.513864153164
H     -1.985132249836    -2.895788527843    -0.129893063036
H     -0.926094307751    -3.152686028992     1.319647949732
N     -2.970288322973    -0.538805058251     0.659998910714
C     -3.285587932519     0.718730541657     1.060554687931
O     -2.609846568122     1.396414337377     1.873067477263
C     -4.516698133875     1.290461970263     0.477951322822
H     -5.353445466055     0.623191770972     0.744531517419
H     -4.670690433277     2.297013254217     0.904350448880
H     -4.387839941683     1.343997348182    -0.616199934392
N      1.887309669259     0.372069859898    -2.339744356825
C      1.946465883846     0.501512199207    -3.701187138421
C      2.897890195713    -0.188353514380    -4.419769724411
C      3.784824051743    -1.027236744114    -3.782096891483
C      3.691564037175    -1.158524588789    -2.422353290169
C      2.702204841520    -0.443553207880    -1.710753629553
H      1.255187069003     1.162387535375    -4.211325057374
H      2.943017795942    -0.075067104036    -5.491070760190
H      4.535752547141    -1.576504676931    -4.344250957858
H      4.343645259655    -1.804840488468    -1.867768464810
O      2.690677048563    -0.664575661372    -0.427113023759
H      1.740914659800    -0.640031518950     0.179620541519

