# STO-3G

title

0 1
C      0.386477791727     3.356478035632     0.624662123435
C     -0.983529834641     3.701134213796     0.706980880146
C     -1.613641484739     4.375617711256    -0.351744519129
C     -0.911502349396     4.714042446233    -1.528359256485
C      0.458914788397     4.414111254072    -1.616545093141
C      1.113489548655     3.751269477953    -0.542598058028
H     -2.898123064359     0.149413051433    -0.406741037863
H     -1.551238877473     3.444846139501     1.595474144394
H     -2.663259090368     4.647148235077    -0.259716651428
H     -1.415809365450     5.226383443492    -2.343003000915
H      1.038349875390     4.727430227352    -2.480392101806
H      2.202823460912     3.728581417578    -0.510177529696
C      1.112348733879     2.604100013126     1.660645188061
H      2.496005470698     2.342921440394    -2.261985947068
H      2.191922139152     2.556369675460     1.505395789713
C      0.544035511138     1.912256275340     2.681284322976
H     -0.530590529297     1.865663573037     2.799248760813
C      1.304294867943     1.099978414325     3.642844174637
O      2.567561297914     1.099856682999     3.614860971925
O      0.599555208867     0.325934407191     4.583141802396
C      1.399946763510    -0.469849052597     5.467327608343
H      0.734915241961    -1.032965086662     6.156401379752
H      2.010118840221    -1.203232418611     4.892976452275
H      2.071582100045     0.174308053493     6.078634970566
Pd     1.274375148183     1.669642053760    -1.621672789878
C     -0.271911218356    -0.187808558125     0.263907103866
O      0.850572047697    -0.628895569828     0.730728533169
O     -0.416245241754     0.633747885456    -0.715335444556
C     -1.550509215359    -0.677181443037     0.979912089972
H     -1.390704080749    -0.566406723335     2.056351830338
C     -1.862233486568    -2.126858151457     0.676954490016
H     -2.762223095605    -2.434699599113     1.248340998546
H     -2.070892139608    -2.241696335800    -0.405707205129
H     -1.007994402697    -2.772573610299     0.967799642399
N     -2.698195280668     0.127780815176     0.586828652955
C     -3.159440536589     1.128906752376     1.377094073952
O     -2.700649937088     1.424583464616     2.509036360032
C     -4.292068639205     1.899965637811     0.824115887932
H     -5.121536222317     1.195166243646     0.648731043254
H     -4.581073581758     2.671596544097     1.558177736553
H     -3.961553838200     2.362670198502    -0.121008711877
N      2.011507218626    -0.019300819077    -2.529155584313
C      1.931820959789    -0.140761012418    -3.890217312022
C      2.723478297788    -1.056611719431    -4.547747179204
C      3.579969862458    -1.875594939136    -3.844927506402
C      3.620975697534    -1.755556756705    -2.481250656260
C      2.794741619313    -0.811606550089    -1.832494679085
H      1.262420203909     0.500737790442    -4.451735924049
H      2.661592035273    -1.141368961837    -5.621015390278
H      4.200915785254    -2.605266700484    -4.358483917389
H      4.250787256268    -2.376698510680    -1.874312593135
O      2.880844400828    -0.803834649133    -0.532717058409
H      1.952335958527    -0.583947425765     0.083219176382

