# STO-3G

title

0 1
C      0.919794909639     3.345801407920     0.617525276398
C      1.751762969750     4.423417371312     0.172395229974
C      1.314902916572     5.321810624560    -0.802797135649
C      0.048773358360     5.154407239598    -1.416681439699
C     -0.764029899218     4.080616526810    -1.037858969410
C     -0.351134949869     3.170672392784    -0.022691972085
H     -3.752447687777    -1.173553793377     0.434969889516
H      2.720221550538     4.565141917349     0.648439775510
H      1.951909557353     6.152648441792    -1.097287487519
H     -0.284603213640     5.851993689344    -2.180713081304
H     -1.740381335052     3.941706528612    -1.495613100513
H     -1.083679376072     2.484789460202     0.392045345088
C      1.352405067821     2.562561686993     1.793959534660
H      1.463024475272     2.541404327378    -2.051914706376
H      2.414954112822     2.650962888035     2.018971053507
C      0.544163059258     1.775709933833     2.545912286558
H     -0.507734083614     1.678881245185     2.315031273544
C      1.014849724478     0.959369799802     3.673278727039
O      0.206297932379     0.177845079305     4.243731934588
O      2.371985736430     1.003549756726     4.054027866269
C      2.738862711891     0.165301499105     5.158603284557
H      3.822484592547     0.287661610281     5.370208675816
H      2.170718504352     0.448023283084     6.073832185980
H      2.547727294678    -0.905892355729     4.921656145992
Pd     1.006393558657     1.507771565775    -1.030141618322
C     -0.893335988911    -0.526750784821     0.091910019589
O     -1.432271491718    -0.543754656228    -1.092290594721
O      0.266816929511    -0.058280407748     0.369714664302
C     -1.786785152154    -1.047304921550     1.246362846105
H     -1.410939301588    -0.613372962663     2.175575779124
C     -1.774160338667    -2.556035549543     1.360387479588
H     -2.423315581037    -2.864648512141     2.205852621216
H     -2.166268040704    -3.003400532989     0.424178975307
H     -0.741211549264    -2.915994323830     1.544523800899
N     -3.165387703845    -0.606651006604     1.032862454452
C     -3.460809880288     0.706197341048     1.208250799889
O     -2.626486067959     1.567069833496     1.588940880508
C     -4.849516203119     1.133196881876     0.936805289677
H     -5.234680896099     1.601240324605     1.857972414719
H     -4.814382925796     1.867467851801     0.116335150997
H     -5.476654305554     0.267826317303     0.659565793682
N      1.899088138806     0.151846943573    -2.281125504379
C      3.265763921820     0.107957151755    -2.339354607920
C      3.889829153380    -0.621899955341    -3.327396061822
C      3.149449644005    -1.327883999724    -4.249965684623
C      1.783493952098    -1.285331967216    -4.156749332597
C      1.171607128498    -0.533467300906    -3.129440000714
H      3.855459966993     0.662870882276    -1.618605778837
H      4.966898604288    -0.647177152002    -3.371111760495
H      3.636620826310    -1.909975044118    -5.028047077948
H      1.150865607098    -1.825511460860    -4.833641241548
O     -0.131031784079    -0.586844541012    -3.118103732525
H     -0.713413880572    -0.438171521488    -2.171008443704

