# STO-3G

title

0 1
C      0.385992049899     3.833683127221     0.420528664873
C      1.075872394384     5.044384658216     0.207308785158
C      0.895227872351     5.786326008815    -0.980883667690
C      0.033394160134     5.328793582348    -1.988861796617
C     -0.714116356026     4.143840704058    -1.777318485212
C     -0.565182920416     3.413499108240    -0.570256670627
H     -2.253829953260     0.800814134339     0.440905845427
H      1.775222968437     5.399901019396     0.961629594084
H      1.444964610246     6.714189129147    -1.119185374113
H     -0.086805671310     5.892128761687    -2.909754866572
H     -1.470722998973     3.838269885311    -2.495205975092
H     -1.286191870101     2.641461076985    -0.328068758770
C      0.649642717319     3.032526124779     1.637017460245
H      1.849031756480     2.778788091537    -1.975463423648
H      1.050548576965     3.586643905817     2.485045355654
C      0.482382335671     1.685752255264     1.719510767606
H      0.137899812378     1.123233515667     0.862758062675
C      0.746247727794     0.867768411584     2.911922632852
O      1.050206818614     1.415576284672     4.006438378070
O      0.697238662026    -0.529100338219     2.779378632358
C      0.698946388470    -1.274044315414     4.004076767104
H      0.628874522034    -2.358425586005     3.772588776504
H      1.634779872796    -1.094413658926     4.579496253903
H     -0.184221693075    -1.005057139887     4.627828805816
Pd     0.667754405370     1.823808254692    -1.711206630205
C     -0.981772666228    -0.729238985290    -1.004905274176
O     -0.349206945707    -1.547665823573    -1.718413679900
O     -0.994393625851     0.592567124067    -1.168481536247
C     -1.830908015980    -1.223360908970     0.207548659184
H     -1.193572911224    -1.855543171292     0.838410932487
C     -3.029317428717    -2.037944259522    -0.231797766667
H     -3.561151831085    -2.424844275924     0.662314702524
H     -3.721395717711    -1.390524838845    -0.807004190695
H     -2.704067771402    -2.894058499345    -0.858289378803
N     -2.307244346824    -0.067030112394     0.966652133095
C     -2.592989476315    -0.109491816091     2.289218420882
O     -2.524751213241    -1.128816915489     3.018700163201
C     -3.020678500791     1.179911665728     2.874420474474
H     -3.934787885349     1.500873357597     2.348657095936
H     -3.220753100244     1.028470048717     3.949088816278
H     -2.210445882797     1.915809353991     2.732286512299
N      2.030315845343     0.316036406456    -2.023626914588
C      1.912963665562    -0.565780766639    -3.067488506779
C      2.874857240123    -1.538684496337    -3.251941307971
C      3.922986232717    -1.664607946374    -2.365365708125
C      3.996917631063    -0.782175606951    -1.317974322163
C      3.004257775409     0.204126995308    -1.179362898786
H      1.084780547916    -0.478957491517    -3.761713509029
H      2.776345260393    -2.230780482355    -4.072465813455
H      4.667187577194    -2.446959176020    -2.489786731837
H      4.774380428476    -0.837053152511    -0.581370770702
O      3.155462172252     0.993794552799    -0.113512600692
H      2.431695349411     1.667556414642    -0.048253948078

