# STO-3G

title

0 1
C      0.883564968232     3.486410986358     0.085888176343
C      1.898966374733     4.493866396136    -0.028586862738
C      1.767651082498     5.552819513427    -0.927180882138
C      0.651706336391     5.619169212812    -1.799579131092
C     -0.326824499823     4.621556544158    -1.747156983175
C     -0.239986261920     3.556614733113    -0.803104833200
H     -3.162517517135     0.273610338750     1.160052535383
H      2.756814522577     4.446392345415     0.639265763125
H      2.530937196625     6.326356453793    -0.964480693970
H      0.560575109267     6.441161970502    -2.504872966435
H     -1.190168450943     4.661980609549    -2.406554641198
H     -1.092369563220     2.892488410317    -0.671640020408
C      0.995514997346     2.532035673360     1.218401075119
H      2.118564491202     2.862546535623    -2.205662190009
H      2.020607706436     2.216124859947     1.425359474780
C     -0.013173194989     2.103521855563     2.018235707666
H     -1.033092186900     2.416181408869     1.845846657241
C      0.194211702512     1.226090063945     3.182720388816
O      1.328904854492     0.706945475221     3.378371861315
O     -0.847289641288     1.067006207879     4.114995774922
C     -0.560250337274     0.198635260822     5.221634788736
H     -1.444896019579     0.141780306932     5.889738890432
H     -0.331741410574    -0.832391359160     4.864996092253
H      0.299513348787     0.583108074280     5.815132504018
Pd     1.120602913206     1.834336308832    -1.702348671279
C     -1.305653458650     0.232758147125    -0.308268800480
O     -2.139050002311     1.175385153255    -0.392813879387
O     -0.137449963036     0.221728969977    -0.917233471223
C     -1.598961119910    -0.973086543149     0.613109708901
H     -0.700511391599    -1.235550941681     1.183325883122
C     -2.061697003117    -2.191903186391    -0.158216744728
H     -2.226029774755    -3.032499441037     0.547869948474
H     -3.021870236248    -1.960972698037    -0.664029489395
H     -1.298888792817    -2.490342879058    -0.906105029730
N     -2.666929582597    -0.545878422465     1.506657222241
C     -2.821923818389    -1.064008978210     2.748062560604
O     -2.097463199403    -1.967321291895     3.236664285361
C     -3.937092418666    -0.520809517672     3.555055654873
H     -4.576582964232    -1.368308137231     3.849963763729
H     -3.495252886280    -0.037615785901     4.439781019522
H     -4.518044685467     0.214620589383     2.971355820955
N      2.276156805453     0.394638258236    -2.670522838431
C      2.998610085619     0.748173891705    -3.780615756295
C      3.928530478705    -0.119379000086    -4.309956588902
C      4.137010564455    -1.355883649752    -3.741176233948
C      3.389149820062    -1.699235607280    -2.647667884372
C      2.439651553388    -0.791364404794    -2.133381881904
H      2.846898810369     1.717714177368    -4.240489969900
H      4.496576876221     0.171869892803    -5.179300632054
H      4.869596483117    -2.044708692984    -4.154383706446
H      3.493043212529    -2.652259097481    -2.165626584955
O      1.762620781445    -1.244997105705    -1.106849633986
H      0.886158262472    -0.677927855942    -0.868950397779

