# STO-3G

title

0 1
C      0.788883636056     3.385847864024     0.359084110703
C      1.784713802251     4.395591551170     0.151529664361
C      1.593383785828     5.420052283590    -0.775916870995
C      0.423634268556     5.454501866756    -1.575388986415
C     -0.552217304329     4.463935806001    -1.418955878003
C     -0.390001701626     3.432979684529    -0.453655080497
H     -2.585235459877     0.929773461138    -0.101837429826
H      2.684175079104     4.372107881422     0.763291514103
H      2.350442675151     6.191829071918    -0.891443909167
H      0.283968738050     6.250818717163    -2.301784612021
H     -1.463777989220     4.490381248476    -2.010155162741
H     -1.228634356161     2.779943136966    -0.236882032586
C      0.977477928986     2.435296270961     1.480499039529
H      2.106149552881     2.557377988372    -1.797115734222
H      2.022158585927     2.235691611804     1.720648806251
C     -0.014967828273     1.839376907542     2.184260168358
H     -1.053998034970     2.034360519019     1.954343146742
C      0.219803227083     0.875245927348     3.267842443322
O     -0.768048181585     0.283041651629     3.782261603404
O      1.536808561551     0.576721205998     3.669489033430
C      1.672783097724    -0.457660705933     4.653116788775
H      2.749183820892    -0.603582597547     4.886207518496
H      1.145788699033    -0.180585518605     5.594090817714
H      1.267176783474    -1.421005823723     4.268661055176
Pd     0.951237305373     1.658445711159    -1.370716564340
C     -0.701055198900    -0.527624873826     0.141546934016
O      0.352212459540    -1.067925793747     0.648019635770
O     -0.711749040625     0.366091790159    -0.788705458411
C     -2.084282192126    -0.891910241513     0.743537234204
H     -1.922415608677    -1.255476459938     1.762030720682
C     -2.800291938400    -1.953170045453    -0.062304915868
H     -3.770217740679    -2.190201040759     0.420025967367
H     -2.998989480405    -1.564601843310    -1.082874064713
H     -2.183767837147    -2.873550317854    -0.121625436710
N     -2.864282792240     0.347242223323     0.687677626961
C     -3.591721809217     0.985229249089     1.640592026307
O     -3.884355588974     2.205202695255     1.558003906233
C     -4.093458262841     0.184064957824     2.777636709807
H     -3.233835161870    -0.150648312226     3.379101692142
H     -4.743077190373     0.832019791981     3.391351680043
H     -4.668427886185    -0.667059181896     2.377211711794
N      2.007329284200     0.202234856903    -2.355510534752
C      2.196403656848     0.329728965765    -3.705521096004
C      3.126820002404    -0.455903528143    -4.349332853507
C      3.860938243874    -1.387531315479    -3.649493402531
C      3.637034859471    -1.513508520897    -2.304341894605
C      2.670236810842    -0.700522881938    -1.671406858249
H      1.626814470835     1.063855425188    -4.263813318906
H      3.275350591712    -0.343946727976    -5.411512999432
H      4.594279893020    -2.012327285303    -4.152972091622
H      4.164991116187    -2.229911789822    -1.705836037848
O      2.521979801978    -0.925709450623    -0.395338081631
H      1.523573998007    -0.875437117625     0.105196246092

