# STO-3G

title

0 1
C      0.273965644825     3.058284371400     0.658771415997
C      1.657226405763     3.062689469421     0.299326487835
C      2.075609318165     3.646601248655    -0.925719471399
C      1.139571778448     4.235781564393    -1.783870447332
C     -0.237586557723     4.220815437025    -1.446026768777
C     -0.661828207597     3.634856647652    -0.251094411568
H     -1.804467323321    -1.055396350642    -0.664024197075
H      2.418104927417     2.766501726258     1.016687859787
H      3.134001690359     3.659239453513    -1.172088351237
H      1.469804068567     4.713175448840    -2.702676457741
H     -0.964914947002     4.680141345831    -2.109781611474
H     -1.712020805151     3.647071749852     0.026278518897
C     -0.185429835919     2.658163666023     2.075131494634
H      0.258277742793     3.338727416889     2.809675966403
H     -1.273847712817     2.732324925168     2.119628515974
C      0.185913447032     1.187669582321     2.319048190823
H     -0.688722019106     0.562672700513     2.448778912886
C      1.292586016184     0.800869921198     3.217420390589
O      1.184689308566    -0.249840586606     3.895836316190
O      2.481289745160     1.549240616567     3.209055678002
C      3.518078255790     1.083591962988     4.085386811145
H      4.403035758647     1.750572122365     4.000403704636
H      3.175904460366     1.095311528726     5.145561445427
H      3.833482074980     0.049896119248     3.813826276250
Pd     0.675984792425     0.768119358418     0.363435952790
C     -0.286997235949    -2.004075268880     1.512494521166
O      0.573624063751    -1.294092532590     0.735365291269
O      0.077384385066    -2.943677728494     2.241700358857
C     -1.809452638980    -1.624553713595     1.391980901892
H     -2.095454727469    -1.101613360879     2.312903184863
C     -2.682333537900    -2.854724067080     1.263958955263
H     -3.749721412697    -2.552254231575     1.234947493761
H     -2.436746201985    -3.383979290161     0.320338401231
H     -2.524242508542    -3.535924981305     2.125987081961
N     -2.119559008271    -0.752097137183     0.259614764646
C     -2.669901672800     0.476089524801     0.394122086448
O     -2.874340129173     1.075674846622     1.484564137407
C     -3.060353450167     1.126043379399    -0.873107867172
H     -3.756424619632     0.448221106254    -1.396674244659
H     -3.557854934395     2.083912849544    -0.647685304888
H     -2.155652976924     1.282524335196    -1.486420197270
N     -0.023588800248     0.531130223431    -2.959326408943
C      0.705639542205     1.492906865514    -3.604453812549
C      2.084731703023     1.512188964141    -3.486108246931
C      2.735834260486     0.576043599611    -2.713171572699
C      1.982461270156    -0.371070747956    -2.067641145079
C      0.572744765303    -0.367205099097    -2.260750379023
H      0.198829773399     2.241215252238    -4.202423515444
H      2.647718042307     2.267465267870    -4.008952441795
H      3.819654842983     0.579712253251    -2.630513404460
H      2.441722090958    -1.169807322877    -1.516414762599
O     -0.116810587138    -1.393520320199    -1.696404197222
H      0.251016347231    -1.607396598920    -0.769907985037

