# STO-3G

title

0 1
C      0.445189118685     2.427508352438    -1.739114768485
C     -0.406141101438     3.455922549698    -1.242945348025
C     -1.654957923078     3.694870739089    -1.830097814822
C     -2.078599514995     2.919129457479    -2.936579280471
C     -1.242448887620     1.922147844138    -3.465160039266
C      0.020566048972     1.683049610711    -2.878570737249
H      0.423283408175     2.304172273260     1.457410629268
H     -0.075039684828     4.071328506682    -0.412017886099
H     -2.293344545971     4.487387803297    -1.447548570336
H     -3.046968444833     3.113982407510    -3.392290984649
H     -1.553441351289     1.350132873695    -4.335249792403
H      0.703311940838     0.967449406412    -3.324418952574
C      2.488816846521     1.629331573029     1.896961786213
H      2.826935340173     2.543597576306     2.382847015563
H      2.851238452964     1.466686949768     0.883706306739
C      1.660724683586     0.742821466952     2.510176495583
H      1.338296192079    -0.148987373058     1.987380858864
C      1.105092512534     0.919082518954     3.862835051770
O      0.170763505330     0.161017446021     4.240203971653
O      1.580108003635     1.956908296607     4.687912763146
C      0.946944229321     2.079092708904     5.968701225426
H      1.405164327648     2.924242391472     6.525637632613
H     -0.140512872363     2.287674851958     5.851999683840
H      1.085016546730     1.150668746608     6.567958756501
Pd     0.296007424838     0.350222386362    -0.535458647866
C     -1.361651901261    -1.656224492355     0.630317384522
O     -1.845324006010    -2.743253674856     0.986827665267
O     -0.061647867909    -1.471813867784     0.325388773009
C     -2.260911869987    -0.369830278079     0.494302877138
H     -3.037075629514    -0.439728892040     1.266696207359
C     -2.920560311965    -0.283878609494    -0.862971927761
H     -3.528562647229     0.642434573726    -0.922460050077
H     -2.149783417515    -0.253100643151    -1.658355886675
H     -3.578597037043    -1.163675199413    -1.022142542482
N     -1.367713821607     0.796332809503     0.617488447598
C     -1.468450982701     1.761569429649     1.467670196814
O     -0.483447338420     2.645877965618     1.698008297105
C     -2.687496926115     1.983949624349     2.262029050131
H     -3.546267585424     2.051368706335     1.573755506236
H     -2.789475265308     1.147035026339     2.974094070597
H     -2.583634932377     2.928527097925     2.827483530519
N      1.903141000464    -0.421372583044    -1.480775325659
C      1.846322265326    -1.722340560932    -1.903025759732
C      2.956205611297    -2.307807410626    -2.471092579960
C      4.136059946552    -1.611258090304    -2.596069526472
C      4.185825488022    -0.317455882051    -2.150095325979
C      3.044478290980     0.280997935533    -1.562351094066
H      0.920476597081    -2.280603570745    -1.834267140731
H      2.897789847011    -3.330216589658    -2.807259568931
H      5.012702083254    -2.080719318511    -3.034530555464
H      5.084169968980     0.264091162164    -2.202676523035
O      3.182262738773     1.474438040364    -1.134650044475
H      1.489126094607     2.343632259610    -1.398699025073

