# STO-3G

title

0 1
C      0.285882163078     3.660143021752     0.379523907876
C      0.822028728813     4.954324568706     0.167468720466
C      0.099680175185     5.939814902714    -0.527694179229
C     -1.180597494201     5.649771660818    -1.035169843502
C     -1.722623446422     4.362705426484    -0.840960978689
C     -1.001030227822     3.380385558342    -0.144624754667
H     -3.752691413544     0.300784367170    -0.252170766609
H      1.810832556318     5.189559206405     0.558549289183
H      0.532086054395     6.927530602273    -0.671666088978
H     -1.742902390854     6.407459568443    -1.576020410544
H     -2.705372359709     4.125481929906    -1.244395356024
H     -1.421537394494     2.386388262789    -0.033338399015
C      1.102457452587     2.675175117777     1.131663191652
H     -0.065572188751     0.387563384638    -0.765310093793
H      2.092029004857     3.049146237240     1.401958700665
C      0.638965962310     1.507537177852     1.767271631193
H     -0.407418151854     1.244053557697     1.759030672964
C      1.442673271245     0.759020765407     2.746038564604
O      0.901092323701    -0.162782476762     3.405082475812
O      2.842008433962     0.811489958716     2.599188716745
C      3.590334570905    -0.076652232574     3.442915877542
H      4.677442064057     0.061757835902     3.258279601181
H      3.390379481141     0.135511925921     4.518241909349
H      3.334358744313    -1.139697473617     3.225948159005
Pd     1.708386719717     0.998803449434    -0.146359086916
C     -1.160776616655    -0.947552540884     0.225812837238
O     -0.194310876501    -1.648165031496     0.600025832831
O     -1.058146300295     0.048835018993    -0.678259736309
C     -2.578955678084    -1.121459890306     0.802803331560
H     -2.446686194170    -1.339361849174     1.867708456625
C     -3.324819426869    -2.268057953615     0.155381877275
H     -4.316686788130    -2.381255769996     0.639945404026
H     -3.476002869501    -2.050716945627    -0.921551843416
H     -2.753487287183    -3.212392890232     0.270787066588
N     -3.380763782672     0.087232951711     0.664265746021
C     -3.290860097343     1.065727371556     1.612637178902
O     -2.531053210754     1.008943149196     2.606262255676
C     -4.159301583480     2.250495728378     1.443754258581
H     -4.811178048339     2.307257358508     2.330939205581
H     -3.505341330364     3.137015087543     1.397129842480
H     -4.767340661265     2.163962324917     0.526835613778
N      2.584315777293    -0.265840221411    -1.572763324921
C      3.238239587628     0.321526835481    -2.624467106329
C      4.089251449884    -0.423268330016    -3.413457498512
C      4.281119175696    -1.764486929082    -3.163340262693
C      3.601407976023    -2.331487715487    -2.118153224647
C      2.733288617063    -1.537463060986    -1.340351966333
H      3.097689444003     1.377515009538    -2.825388802214
H      4.603963401912     0.048842854894    -4.235071395512
H      4.948165264141    -2.358379049154    -3.783009558449
H      3.692027079020    -3.373209229856    -1.878776391517
O      2.115493894563    -2.211415624245    -0.384461745536
H      1.309745885008    -1.795118829578     0.070890583539

