# STO-3G

title

0 1
C     -1.848051533501     0.074396894453     2.424786552151
C     -1.398461544344    -0.922621684430     3.313963056896
C     -2.169989050098    -1.247959317103     4.447633478184
C     -3.386648850614    -0.579684831770     4.692159321797
C     -3.832285008590     0.420055790066     3.803786314341
C     -3.061666008477     0.748698055260     2.670604076245
H     -1.242775335651     0.307411768033     1.552914542980
H     -0.462065890699    -1.434987755832     3.111315359838
H     -1.824007414885    -2.017544381928     5.134019711035
H     -3.981768884043    -0.834306650406     5.566804226514
H     -4.771383189638     0.935894685827     3.993165419357
H     -3.394042937025     1.527844472050     1.988704614405
C     -2.649479784344     0.340906580081    -1.941240245360
H     -1.858254567011    -0.008935523150    -2.603386486019
H     -3.105606492704     1.294786996692    -2.203491285343
C     -3.092164105578    -0.368264027129    -0.871666912372
H     -3.877522591117     0.020728785029    -0.240457389202
C     -2.576512373981    -1.686350429241    -0.462103717662
O     -1.586530934559    -2.189409612282    -1.062493836794
O     -3.221816498700    -2.366761548428     0.581876349998
C     -2.558199916854    -3.539235177479     1.073473476422
H     -3.147813838843    -3.968671371666     1.911647059912
H     -2.466987293232    -4.310043650016     0.276035433060
H     -1.547372427333    -3.286221397919     1.466596612022
Pd     0.617254850779     0.161494281481    -1.125855892352
C      1.185139940252    -1.960448875019     0.656253221424
O      1.083737760851    -2.681918417531     1.663362866064
O      0.951229435897    -0.619668037836     0.705059863941
C      1.604038155485    -2.544817006367    -0.746579486208
H      1.004557368512    -3.452213366109    -0.907996048297
C      3.072081129319    -2.904042089933    -0.777718387759
H      3.328536037840    -3.345925191512    -1.761709641426
H      3.678830497324    -1.987366600229    -0.626828445594
H      3.303574135668    -3.637322574963     0.022973875171
N      1.368051545717    -1.522900528750    -1.758330631086
C      0.849606489357    -1.517803641601    -2.976278693844
O      0.372360493104    -0.381816640772    -3.407455731318
C      0.811401965954    -2.729494444122    -3.807451861374
H      1.844222496751    -3.097345275339    -3.922244044006
H      0.175343846722    -3.469172525951    -3.292964358780
H      0.378226703122    -2.468988194688    -4.789758688442
N     -1.454853872680     3.254832422537     1.009698705702
C     -1.350851319321     3.997165072687     2.155971156365
C     -0.127016462830     4.110072569022     2.795096820962
C      0.987762125394     3.469403663514     2.288444470576
C      0.849394266391     2.742956532171     1.131964917568
C     -0.426095406022     2.676882648459     0.540191494834
H     -2.226991557233     4.489246516564     2.561663169640
H     -0.053539231699     4.684264993500     3.703750623080
H      1.946927613060     3.534749317259     2.795151034422
H      1.663475540820     2.197585423028     0.701522811975
O     -0.507250155732     1.894857007422    -0.585051547248
H     -1.440971966823     1.758415660420    -0.877512640900

