# STO-3G

title

0 1
C      1.825211832876     2.119217575952     0.957132516313
C      2.900859253088     1.331552758794     1.415583246784
C      3.867217455247     1.898055951348     2.270581697814
C      3.756217133920     3.244967561998     2.670992289136
C      2.674578644034     4.028126562103     2.220138711262
C      1.709800169865     3.463358142791     1.363071169378
H      1.084153395781     1.677511440114     0.297296467202
H      2.977328389384     0.290629530913     1.111381512384
H      4.698083238035     1.291992768265     2.624112641156
H      4.503288446510     3.679207014611     3.331750203944
H      2.583655480861     5.065216650770     2.535197504844
H      0.868429213279     4.063155576675     1.019787531306
C      1.923748743475     0.421810232783    -2.945612460155
H      1.715361872234     0.148526188062    -3.978500789431
H      1.609884806464    -0.275209948712    -2.172074246556
C      2.567189077933     1.572326528184    -2.609417782602
H      2.747800578721     1.797491095815    -1.567189117246
C      3.033027904375     2.594366485335    -3.562587095250
O      2.823874817281     2.441276481823    -4.797561107534
O      3.761825415112     3.695299144565    -3.076631474662
C      4.175076399877     4.654432261741    -4.059204848980
H      4.734499136654     5.474164288630    -3.559937469335
H      4.846295338272     4.183474866149    -4.812823595972
H      3.291875934214     5.095662729666    -4.574355995297
Pd    -1.216625521998     0.586798736595    -0.475785437610
C      0.473612868035    -1.435799082714     0.619002555105
O      1.514933044803    -2.042470013908     0.912802697713
O      0.407289367742    -0.614286073274    -0.466592597725
C     -0.849477904567    -1.566119331851     1.464095374195
H     -0.573066511375    -1.462047729755     2.522789994662
C     -1.508332259065    -2.910909811079     1.246873244546
H     -2.405692543706    -3.001690989022     1.890557584366
H     -1.814208502702    -3.006894615886     0.184389935895
H     -0.799823974354    -3.727514187820     1.500275552836
N     -1.760877576144    -0.528044341976     1.020645123573
C     -2.787066646219     0.169826950099     1.455467010201
O     -3.148306154485     1.186158741836     0.717206322731
C     -3.482814236948    -0.159419727114     2.706582584069
H     -3.909884440255    -1.170444593389     2.605054543641
H     -2.747956618918    -0.117970808892     3.527467927118
H     -4.286016858334     0.582289136072     2.868427064294
N      0.503680335765     3.941185919555    -2.239724929066
C      0.544224906777     5.284506901953    -1.979698310894
C     -0.466624316274     5.871887192256    -1.235489394975
C     -1.521134095931     5.112579669542    -0.764819325450
C     -1.528214834817     3.768217823415    -1.042144582756
C     -0.463283001968     3.240922369794    -1.800160606401
H      1.369473867665     5.880838494859    -2.351285442054
H     -0.429605402070     6.929714898635    -1.033655539926
H     -2.322970485916     5.567353568617    -0.188977768794
H     -2.324004067276     3.127323061357    -0.715907060243
O     -0.517483111607     1.885509258636    -2.016713606913
H      0.310801659520     1.551271996813    -2.472219868336

