# STO-3G

title

0 1
C      0.325513565126     3.412448907461    -0.447621170843
C      1.731487221559     3.525760576675    -0.202165393178
C      2.654062350584     3.565969943853    -1.272741613807
C      2.195777126201     3.500345185892    -2.596398205593
C      0.810173756845     3.390465574654    -2.859454712593
C     -0.109030293183     3.344509517810    -1.805981666214
H     -2.467547605478    -1.457614441538     2.141225829900
H      2.099347356426     3.683198724990     0.807584869275
H      3.715589616662     3.668044169098    -1.061738388078
H      2.902010529716     3.535565856013    -3.422807225233
H      0.454786500991     3.322605908206    -3.884316048040
H     -1.170643498339     3.242885964595    -2.008011899248
C     -0.701352725573     3.565710524106     0.703186351073
H     -0.610560788027     4.563349461016     1.149732884587
H     -1.701280845496     3.460396339807     0.276894622121
C     -0.465271535950     2.405562356108     1.696847578652
H     -1.358993923978     1.802802528565     1.844146651665
C      0.236180525327     2.617088955025     2.982087355782
O      1.137459967366     3.490838438804     3.068007058795
O     -0.094714019769     1.801976395627     4.077155296046
C      0.605034579965     2.078337678336     5.299048557314
H      0.252522151109     1.384238109953     6.092278476460
H      1.701587163354     1.932092842960     5.169785311054
H      0.408990234265     3.120408764742     5.640584836169
Pd     0.560182535305     1.263973497460     0.308136883554
C     -2.645636950176     0.426392649718     0.040628465207
O     -2.246225798183     1.187944850503    -0.970096695622
O     -3.499482408496     0.744362216088     0.901578201432
C     -1.908579737051    -0.954814692287     0.166734342179
H     -0.952887940554    -0.924914285706    -0.358323841819
C     -2.728748163154    -2.088892769812    -0.406860050608
H     -2.177715681598    -3.044618422524    -0.286549944479
H     -3.694477996234    -2.161172069709     0.135586977246
H     -2.921186384425    -1.912741414659    -1.485645734703
N     -1.649928636297    -1.258753062242     1.576477714339
C     -0.468649271928    -1.032026544674     2.173265465500
O      0.515992990478    -0.415639958496     1.659420055385
C     -0.277698694835    -1.589168657834     3.526860052323
H      0.600187188901    -2.255413226559     3.493456228338
H     -0.097877421376    -0.749681955820     4.215845408356
H     -1.169193642389    -2.158247792448     3.845835974857
N      1.341723974925     0.178626435218    -1.372680313490
C      2.659369053555    -0.187122468296    -1.362421163552
C      3.202351363221    -0.850779540484    -2.442708165249
C      2.427632052265    -1.152865598947    -3.540196771174
C      1.109473041929    -0.781899585814    -3.529790092622
C      0.580695569898    -0.099367813523    -2.409017521583
H      3.275999373865     0.048576094142    -0.502917243657
H      4.242221832596    -1.132133665158    -2.424047671324
H      2.851881853392    -1.674287178223    -4.394073745745
H      0.455228634820    -0.985067086694    -4.353518953708
O     -0.680551546315     0.203507880609    -2.507710675068
H     -1.440840216556     0.734922118914    -1.685340712970

