# STO-3G

title

0 1
C      0.368774541086     2.985051593121     0.708355947530
C      1.083833852779     3.981226365977     1.420682054438
C      0.954838068467     5.340948319288     1.082884142720
C      0.105424414555     5.743460905199     0.034657465671
C     -0.623491834407     4.766378434654    -0.673075694242
C     -0.496794391877     3.409682727885    -0.337141930058
H     -3.447004438231     0.972443495136     1.095798467428
H      1.734860069579     3.719427170400     2.249202298968
H      1.514646860609     6.087116225355     1.642953085224
H      0.009705476961     6.796072029775    -0.221729737559
H     -1.286652593783     5.062002974598    -1.483370477289
H     -1.052002500804     2.654592053964    -0.889716608295
C      0.393094827950     1.527145946916     0.999257607583
H     -0.525666612246     1.041473485745     0.675976931596
H      0.760661109588    -0.988092563461    -0.935158153220
C      1.218469329569     0.726403955709     1.822088348284
H      0.811191557648    -0.216666467363     2.158598882649
C      2.469511577800     1.142356046310     2.464100091689
O      3.342873567669     1.665326138238     1.720982590113
O      2.836999901330     0.515485111728     3.664820538119
C      4.134682144217     0.850310094140     4.176852594984
H      4.299676407170     0.314248018094     5.136713230607
H      4.934614977844     0.539431911212     3.467036079052
H      4.214559298040     1.943776356848     4.371852178205
Pd     1.864117052720     0.552402259355    -0.294562188669
C     -2.241010900915    -0.838008639213    -0.724369936012
O     -1.800559150770     0.278403552687    -1.060501278289
O     -1.853328866492    -2.010251398793    -1.296623412029
C     -3.236796299777    -1.036217052818     0.435395497615
H     -2.975757777323    -1.970655973846     0.939395294554
C     -4.672400877146    -1.106101259241    -0.037330630587
H     -5.338409278314    -1.271709191986     0.834663636899
H     -4.949834684754    -0.146117742016    -0.519499152132
H     -4.800400312771    -1.939338102804    -0.758476456187
N     -3.118504603213     0.060514408656     1.389606694513
C     -2.253553470733    -0.045576610603     2.442272393998
O     -1.516044083045    -1.035844068800     2.650756256877
C     -2.217671858817     1.088985020587     3.391077697503
H     -2.456704570403     0.692934955869     4.391336781937
H     -1.198476085777     1.507372284390     3.375117780509
H     -2.949089727713     1.864187289494     3.102536706645
N      2.339373052191    -0.053152733712    -2.301417830640
C      3.258528241098     0.464884781911    -3.174237850474
C      3.349777426096    -0.042189527233    -4.457374184263
C      2.518478151993    -1.065299543338    -4.869467785461
C      1.606657613607    -1.563646343653    -3.973568259169
C      1.558674038391    -1.011021563387    -2.680389406793
H      3.911874369877     1.269771281189    -2.857334073715
H      4.074437385302     0.370562705220    -5.140600742361
H      2.585252041702    -1.465473731194    -5.877850241282
H      0.932160908712    -2.357439544693    -4.222569455667
O      0.647223423249    -1.525448904355    -1.840006466859
H     -1.001479840428    -1.899309112278    -1.817932874707

