# STO-3G

title

0 1
C      0.590935235884     4.033065365972    -0.345683036537
C     -0.112427669275     5.252297391946    -0.227626285547
C      0.554535468802     6.479266634406    -0.397365576287
C      1.931429636184     6.503090805144    -0.693925585121
C      2.635101635220     5.290605818694    -0.823555129146
C      1.966519801458     4.064157238055    -0.653753302843
H     -2.557676026675    -1.288897149014     2.312559454415
H     -1.177735427790     5.241168178866    -0.006748167801
H      0.001649646787     7.411155244756    -0.305165851603
H      2.445782923456     7.451314899641    -0.829864590198
H      3.696240697969     5.297099143527    -1.061043034370
H      2.515508841343     3.128437612193    -0.760817283722
C     -0.163189996081     2.736965121418    -0.119044842055
H     -1.203952302743     2.781531952882    -0.446623353050
H      0.279877184185     1.994267320822    -0.975534668330
C     -0.069026574664     2.022177947776     1.198044503584
H     -1.018256516528     1.757880042950     1.648850523697
C      1.026221498395     2.243444430238     2.156061359501
O      2.200337658543     2.079185058594     1.730953193746
O      0.736442727107     2.102339181292     3.523340138331
C      1.860740767179     2.182929388250     4.410767495361
H      1.508823692499     2.088698884371     5.460815795428
H      2.583387749321     1.358898669756     4.211736124017
H      2.378792726602     3.163411862624     4.305353417479
Pd     0.555586824580     0.478665520886    -0.052888721551
C     -2.731177593667     0.210534499057     0.068190465654
O     -2.411245798807     0.844705909492    -1.052192029910
O     -3.440904106144     0.686843770529     0.986174072019
C     -2.105516187950    -1.216128100708     0.266590347478
H     -1.202462544990    -1.333154391777    -0.334537082390
C     -3.072987159862    -2.318430860401    -0.101072504341
H     -2.596387231712    -3.305047479136     0.075093004211
H     -3.981423038085    -2.243137616846     0.532927602163
H     -3.358936541763    -2.236055066630    -1.170188276091
N     -1.764249558230    -1.374891508945     1.685334379540
C     -0.517750516725    -1.281742362006     2.170765790579
O      0.525154140956    -1.003624849834     1.496963508555
C     -0.329533070368    -1.527609747773     3.613173964691
H      0.405456714200    -2.342533408746     3.721894983545
H      0.056047259565    -0.596773423494     4.062576777576
H     -1.283358204556    -1.814882779912     4.091130385187
N      0.987169756746    -0.821442482530    -1.662216405340
C      2.132680069791    -1.568081582533    -1.696534746649
C      2.409115565180    -2.353804596301    -2.795123078181
C      1.539743560664    -2.400245274322    -3.862522284818
C      0.391752113314    -1.654810246638    -3.802330531864
C      0.128252651003    -0.859660051468    -2.663413296331
H      2.823756055551    -1.534553034544    -0.861916780123
H      3.316631088817    -2.935189764674    -2.815442949181
H      1.757093797034    -3.017575376479    -4.730313573359
H     -0.326317631433    -1.653754860572    -4.598370536525
O     -0.993956500105    -0.212905416838    -2.693578509974
H     -1.707910904014     0.346479773571    -1.790649447780

