# STO-3G

title

0 1
C      0.281939834539     0.150102313388     2.113437502812
C      1.241524109557    -0.861709160332     2.321275494990
C      1.196369409504    -1.648152095620     3.489354155097
C      0.191405887772    -1.424458019068     4.453429455706
C     -0.760300118964    -0.404258178144     4.252540944010
C     -0.710600108322     0.386254589529     3.086058373588
H      0.314684828424     0.755361343889     1.212869261724
H      2.006967110667    -1.042395522115     1.569625935588
H      1.938501784011    -2.428598034798     3.646552537153
H      0.158976725922    -2.030784651916     5.356262594718
H     -1.525968852010    -0.218853574799     5.003042666435
H     -1.428833163561     1.190546589329     2.941371350604
C     -2.689847099162     0.692108914630    -0.407441573243
H     -2.226797458019     0.839619221872     0.572680955831
H     -3.752235298064     0.949925770975    -0.341643337168
C     -2.427741791874    -0.690670105548    -1.015716114651
H     -2.430587481905    -0.599312886974    -2.102749129151
C     -3.287311365274    -1.830530717348    -0.639645929353
O     -3.903714933941    -1.822867666244     0.459578813074
O     -3.327654295665    -2.945378287693    -1.494292111432
C     -4.047903975770    -4.084735357019    -1.003795928254
H     -4.010451103487    -4.897602908188    -1.760551834949
H     -3.588758416457    -4.466677553939    -0.063389074247
H     -5.116120966389    -3.829621129691    -0.818675201779
Pd    -0.397648861996    -1.082228112838    -0.876243303427
C     -0.872996353617     2.216305266883    -1.102192218729
O     -2.096464553560     1.640805207448    -1.378874474997
O     -0.594962404444     2.759940685947    -0.024210708149
C      0.157758835920     1.920860376546    -2.218036744670
H      0.998070163927     2.617325957146    -2.094274569267
C     -0.395284500017     2.023450480156    -3.623567095983
H      0.401349705707     1.800612282468    -4.360650407120
H     -1.217943092692     1.289529101493    -3.752988652718
H     -0.788416912932     3.045275706081    -3.802387689977
N      0.507071199108     0.520819338075    -1.945616981048
C      1.697584605477    -0.038946579899    -1.995424485997
O      1.845557630261    -1.253850115853    -1.522960102686
C      2.879843547683     0.657481909205    -2.535766155869
H      2.659759982053     0.965197809762    -3.571535572293
H      3.096791145461     1.525882892209    -1.891774987934
H      3.739326674561    -0.037996414222    -2.522617037838
N     -0.551934458834    -2.829240726499     0.206848035029
C     -1.216177814613    -2.987253820066     1.396445125303
C     -1.213177676193    -4.214492436759     2.028866293124
C     -0.528931230998    -5.280719633726     1.489005861456
C      0.170059465304    -5.082995672610     0.327080470755
C      0.160151813066    -3.809317236174    -0.277288877172
H     -1.753551971985    -2.154661111649     1.834071068072
H     -1.750100089342    -4.326980059898     2.956541550729
H     -0.524085667626    -6.247546689106     1.985104432156
H      0.757690270983    -5.857332228607    -0.123902934427
O      0.947259803018    -3.698739225267    -1.337653568300
H      1.242267063543    -2.751300214049    -1.569439438533

