# STO-3G

title

0 1
C     -2.076748303367     0.623925320045     0.548116177746
C     -2.096852471343     2.005941567130     0.822232807264
C     -3.096676539532     2.549129752524     1.653868604621
C     -4.081371136972     1.710034538163     2.212172538069
C     -4.067932620588     0.328886954580     1.932540632419
C     -3.068550046656    -0.211333795037     1.100084984121
H     -1.303929820003     0.198714562896    -0.087456653355
H     -1.344687880115     2.659372712450     0.386987756118
H     -3.110018548284     3.616533663300     1.863173664505
H     -4.853689245887     2.128210701899     2.854000270159
H     -4.831409157016    -0.320612729877     2.354854340576
H     -3.065369021223    -1.275646733842     0.873303002456
C      2.356619747831    -1.444491849040     1.286702773280
H      2.967633408549    -2.140261992586     0.703943358829
H      2.708045356069    -1.438647948321     2.324309818399
C      0.849145080395    -1.686829686693     1.167584055157
H      0.322446554511    -0.755409150563     1.377654177771
C      0.226907502793    -2.766413761348     1.959920177235
O      0.900577317332    -3.783412279564     2.276731864169
O     -1.151704203344    -2.692741723062     2.220626753781
C     -1.727570410667    -3.822220010913     2.890600299893
H     -2.812927766071    -3.642082506630     3.046754339130
H     -1.614452789147    -4.745241630003     2.277919908034
H     -1.253374311765    -3.976398298328     3.886410391091
Pd     0.332363207690    -1.718324351173    -0.848159272188
C      3.055352591272     0.121337040701    -0.492000858898
O      2.555909471198    -0.072140948471     0.782396012241
O      4.033934047011    -0.479087323182    -0.952013283855
C      2.124790531954     1.049949423895    -1.303012316549
H      2.663764452038     1.363675401407    -2.206869647694
C      1.650469948734     2.266499284324    -0.533991727871
H      0.985543725278     2.885248587608    -1.167053687619
H      1.087995909628     1.938569083530     0.365316637971
H      2.521487043678     2.874004924808    -0.213119017232
N      0.974019575240     0.176960765641    -1.579811533931
C      0.230927401693     0.143200246416    -2.667916474592
O     -0.629973857071    -0.831976571616    -2.822376809406
C      0.346224070841     1.151055731731    -3.738860042598
H      0.148140456860     2.145356935485    -3.306966942538
H      1.358797239023     1.089061400616    -4.170321754813
H     -0.403424582151     0.926737815277    -4.520259901447
N     -0.624966441198    -3.540615326843    -0.828893992709
C     -0.084915605663    -4.740856308965    -0.445227808388
C     -0.857029609417    -5.884567910388    -0.472489034776
C     -2.166503937910    -5.837831059093    -0.897470046593
C     -2.670550519939    -4.635107457391    -1.317292232566
C     -1.845210180105    -3.492211931742    -1.296257247904
H      0.944691552074    -4.789946920480    -0.110246568552
H     -0.425698445638    -6.819260848348    -0.151898578567
H     -2.778101932380    -6.736032840467    -0.917004031841
H     -3.669744172870    -4.535411774575    -1.692432174920
O     -2.407563050348    -2.403052108664    -1.791003549046
H     -1.770430006129    -1.667039006659    -2.111063517322

