# STO-3G

title

0 1
C     -2.212079919429    -0.485670199981    -0.354321891753
C     -2.532641100135    -0.251129227932     1.006038530342
C     -2.622912968311    -1.344458221446     1.898503903071
C     -2.391254888490    -2.653250821503     1.438781501203
C     -2.066765867366    -2.884174813668     0.081542573003
C     -1.986193815385    -1.806304826734    -0.814249018723
H     -2.227327930211     0.334206354352    -1.064832590277
H     -2.719294510368     0.762772302175     1.348416528384
H     -2.887845386223    -1.168477360766     2.938283881276
H     -2.470386146328    -3.495045784681     2.123793873072
H     -1.887887418721    -3.897909304691    -0.270159934188
H     -1.748997454463    -1.978128726121    -1.861421925145
C      2.339341836523     1.528638416581    -1.452254020455
H      3.206889814071     0.870408047157    -1.546689848509
H      2.569183274087     2.465944116655    -1.959636302448
C      1.861359748973     1.709251639966    -0.005825122212
H      1.492471284452     2.709164627289     0.186696158509
C      2.724506463963     1.275237143189     1.114718797883
O      3.744175648906     0.567568772664     0.900713046862
O      2.364848761592     1.659977985281     2.417779461821
C      3.211413214834     1.173125707984     3.468981387111
H      2.828212306567     1.532843377511     4.448123493781
H      3.222003554119     0.059058753300     3.485370290328
H      4.252687850690     1.548237966150     3.344035840377
Pd     0.030361533697     0.718939748228     0.135335768763
C      0.148786281066     1.252312526101    -2.846689886556
O      1.366250649193     0.780723121978    -2.339454857382
O     -0.402548724087     0.561656227341    -3.710983060060
C     -0.522263980521     2.540865805929    -2.290770209672
H     -1.468494533213     2.563950060161    -2.851793186119
C      0.250674545871     3.815404316825    -2.612851953931
H     -0.450761684122     4.652617990368    -2.797601089909
H      0.911309309807     4.089184320111    -1.767511428386
H      0.862350536948     3.682536458416    -3.530109516080
N     -0.719710389039     2.390321848362    -0.836274006825
C     -1.569887636221     3.081818634071    -0.050565183005
O     -1.738946762801     2.792888564130     1.176622632146
C     -2.346732941694     4.216567610449    -0.606418241617
H     -3.040484593353     4.575793398305     0.175877160407
H     -1.646232525312     5.025567714039    -0.861322324638
H     -2.926688170451     3.870965343996    -1.478246794970
N      0.884291638222    -1.001045189383     0.886601617640
C      0.696224416714    -1.306176430681     2.208253501317
C      1.188920788447    -2.488664331876     2.721640311393
C      1.860612674652    -3.375363195086     1.907762399154
C      2.026525283187    -3.048911912124     0.587843233912
C      1.517775307706    -1.825021959040     0.107209060903
H      0.167987683751    -0.611908648210     2.851445414662
H      1.037702284931    -2.719998307757     3.762589874374
H      2.248709113882    -4.310308163644     2.302608575643
H      2.542373479827    -3.688819130798    -0.099615845612
O      1.736869602595    -1.624496410000    -1.186823687590
H      1.428355994384    -0.761449275756    -1.598892023833

