# STO-3G

title

0 1
C      0.580351538067    -0.202025324034     2.152200720465
C      1.469000529791    -1.297261344915     2.160435644219
C      1.582469446522    -2.107281459839     3.307340003581
C      0.810350141676    -1.824279973945     4.453012966643
C     -0.066587522116    -0.721360656748     4.453097557682
C     -0.177306330321     0.089930269466     3.305260818894
H      0.474865826308     0.406746725554     1.258177652658
H      2.053631674292    -1.523004131871     1.271214927159
H      2.266477633215    -2.953752051177     3.307022765862
H      0.899221945434    -2.451204330045     5.337724307089
H     -0.651912978850    -0.491477740268     5.340963938288
H     -0.841545888919     0.952201763337     3.315653005988
C     -2.247231424779     0.902147359102     0.226137560441
H     -2.050903586276     0.601624902229     1.254700794861
H     -3.095869346628     1.594770912370     0.192905665053
C     -2.381885167539    -0.288367690711    -0.733163010087
H     -2.454384064278     0.058788963781    -1.765885686784
C     -3.434658576654    -1.299283764052    -0.514840595727
O     -4.002893546020    -1.392960312510     0.605917076276
O     -3.704217569277    -2.209286327723    -1.550709757374
C     -4.607471394246    -3.275522562260    -1.226679691282
H     -4.742446521354    -3.927599592157    -2.116392550628
H     -4.199615319266    -3.899434059950    -0.398367931597
H     -5.604887778966    -2.875673018543    -0.933541722926
Pd    -0.482868498559    -1.096836938339    -0.883841132396
C     -1.049064244726     2.236138788946    -1.433096307542
O     -1.019633780949     1.644645992988    -0.176847733977
O     -1.972222639176     2.968634008629    -1.810834412108
C      0.181130809387     1.813760944382    -2.280740905982
H      1.004348412240     2.506757542725    -2.033893330901
C     -0.118585337855     1.914526029142    -3.763512540852
H      0.766422150801     1.620883535382    -4.360027519507
H     -0.960468462683     1.237177132269    -4.016078722418
H     -0.398370107702     2.955995200484    -4.028134375609
N      0.493772031305     0.423463588617    -1.967242867162
C      1.648096979061    -0.202219198419    -2.009105153812
O      1.702397136347    -1.445813287190    -1.583653750659
C      2.898684818118     0.452668047041    -2.435794968497
H      2.786877694904     0.784863260742    -3.479755420319
H      3.091382249934     1.301741234565    -1.759008151626
H      3.725342456401    -0.277737398200    -2.360915730123
N     -0.794531208947    -2.836606916577     0.179046267543
C     -1.455366043932    -2.952583371617     1.375046718535
C     -1.574548050144    -4.188288459677     1.979201822208
C     -1.014458167924    -5.307482406571     1.404711790483
C     -0.312127347774    -5.156156242176     0.237844451965
C     -0.194812645535    -3.873869070620    -0.335695084297
H     -1.886867004857    -2.077683297401     1.845474688051
H     -2.106412182238    -4.265958308478     2.913291938255
H     -1.105361550130    -6.281042356502     1.878809645779
H      0.186373808609    -5.976496666464    -0.238291586763
O      0.589505285636    -3.821533530388    -1.403766927038
H      0.962417402901    -2.903619492063    -1.631770750931

