# STO-3G

title

0 1
C      1.981216586829     3.244829885214     0.404729384791
C      2.953069732477     2.836042335239    -0.550750734704
C      2.899097918438     3.327983977567    -1.861587907675
C      1.883836671198     4.241497917094    -2.234236513305
C      0.914481660135     4.653190184877    -1.302790105595
C      0.961738894220     4.160238715728     0.021092244358
H      0.490831616484    -0.806824698788     1.452468030100
H      3.738922671961     2.145406454566    -0.256336239357
H      3.638809437148     3.010912783623    -2.592438830802
H      1.861439833056     4.631409157978    -3.249560670770
H      0.147492446270     5.367829087226    -1.589302502542
H      0.266295228227     4.538957945855     0.764797161802
C      1.589557779713     1.114922241410     3.218839208895
H      1.657068930519     1.062894180915     4.305839351221
H      2.343602600409     0.551503511859     2.669486327922
C      0.597532215911     1.772972804559     2.583680325795
H      2.107501603428     3.003759695820     1.456994870515
C     -0.539042687891     2.466181287852     3.226332277094
O     -0.774116421821     2.311379304368     4.454445449065
O     -1.298890474395     3.349292308764     2.437806007155
C     -2.389348078409     3.998964475254     3.107113848927
H     -2.920264518308     4.664868133427     2.393325721293
H     -3.118823282233     3.250477497733     3.493282314271
H     -2.020189568603     4.621300178084     3.954289173758
Pd     0.399863041023     1.536774493778     0.592682203524
C      0.891013777595    -2.784005196826     1.208290535849
O      1.289644897758    -1.440920283997     1.160334017882
O      1.674773878547    -3.688052069313     0.917163890099
C     -0.597928749098    -2.927179391323     1.664321924360
H     -0.628976399692    -2.510824360923     2.688599283846
C     -1.039252150775    -4.368791291096     1.708892421983
H     -2.073593421563    -4.428244012782     2.105943178632
H     -1.028142049181    -4.782586488658     0.679521995525
H     -0.362854597734    -4.963261266390     2.357179279448
N     -1.568511841969    -2.223736401448     0.798558916656
C     -1.584365151305    -0.939889267539     0.699188671420
O     -0.733678300155    -0.082535113004     1.330550577315
C     -2.663331675716    -0.335147221295    -0.090836805329
H     -3.314863035521    -1.139007109227    -0.481748644075
H     -3.235402759439     0.327822277951     0.577719062185
H     -2.212230543072     0.221773603078    -0.924306488491
N      0.374910433706     0.994581294415    -1.506246238227
C     -0.360470141128     1.737893749268    -2.390841606019
C     -0.232683204363     1.530095938053    -3.748250826017
C      0.640597914125     0.579790761539    -4.228666594702
C      1.365429389671    -0.149511027127    -3.324980469191
C      1.193945648080     0.082286294763    -1.942997224242
H     -1.045116995733     2.491854706405    -2.020636682902
H     -0.816560824581     2.120320766817    -4.434993823197
H      0.750717294482     0.411726765943    -5.296725969391
H      2.058564474461    -0.908701054651    -3.630501349207
O      1.960693914021    -0.685261722803    -1.188939459721
H      1.754308391793    -0.878073160179    -0.202068019524

