# STO-3G

title

0 1
C      1.990807467502     3.143414230389     0.218964261340
C      3.188801192879     2.785869569584    -0.464167682528
C      3.465910294786     3.326028779822    -1.724649695356
C      2.559912807734     4.235796777172    -2.325586274996
C      1.373270615104     4.594683312520    -1.669877082810
C      1.083493583088     4.053032370251    -0.392944021988
H     -2.046319198664    -1.011693274290     1.828181121563
H      3.884457916220     2.092379751385    -0.000289067957
H      4.377539496681     3.046011794361    -2.246444217911
H      2.793253301791     4.659211123379    -3.299977705046
H      0.687579693928     5.306420565334    -2.122378717484
H      0.221598242870     4.418450763713     0.157380333669
C      0.679418802039     0.926043612336     2.693702860320
H      0.404591758666     0.881725199655     3.747942118568
H      1.552997056867     0.337443306459     2.413636805138
C     -0.028133633876     1.609803185494     1.768968258198
H      1.838954944546     2.854719788673     1.253321345191
C     -1.283890245589     2.347907461333     2.025211095581
O     -1.687303848693     3.147425318880     1.139874771034
O     -1.948488728919     2.218685373634     3.257981414954
C     -3.179430340764     2.943653338561     3.384962509594
H     -3.613837406590     2.758090212767     4.390987158455
H     -3.008063820452     4.038738962679     3.277289056027
H     -3.916918717775     2.606051412923     2.621518200219
Pd     0.396457172749     1.478240029903    -0.202571659032
C      0.077660477965    -1.319489665656     0.383396877628
O      1.345428692161    -1.365351021948     0.219029409185
O     -0.685665369576    -0.324798819280     0.000141311982
C     -0.628318309191    -2.428005625210     1.184145071817
H      0.126064080494    -3.024977596949     1.701570834431
C     -1.487787850705    -3.322301807870     0.318005347374
H     -1.950169735817    -4.108603207763     0.949716230812
H     -2.294615558683    -2.718396011371    -0.146119058102
H     -0.871956936004    -3.800433412440    -0.470964933403
N     -1.485875417212    -1.782158835659     2.177452922562
C     -1.272009851896    -1.956220133811     3.510616375194
O     -0.387615154894    -2.689644119860     4.009352590012
C     -2.197217065943    -1.218703414798     4.395576089698
H     -1.945458395495    -1.453012436901     5.444300132582
H     -2.071042396608    -0.143769307041     4.196236162211
H     -3.225156628112    -1.542175928927     4.159048007937
N      0.874374122969     1.133604717422    -2.271757518255
C      0.233505984915     1.863343192858    -3.235964918489
C      0.655496895658     1.797897925883    -4.548595073392
C      1.718090174698     0.995112213999    -4.901253657969
C      2.330668090503     0.259968490033    -3.921065512240
C      1.860997514432     0.345565818256    -2.592163200725
H     -0.595114475983     2.506253251486    -2.962678016115
H      0.149459439352     2.382927302186    -5.298535756194
H      2.057411505901     0.941006228882    -5.932200593848
H      3.154346144368    -0.393336654056    -4.128321329206
O      2.515091482090    -0.416805450226    -1.739509458482
H      2.037679953102    -0.701674229220    -0.840371399262

