# STO-3G

title

0 1
C      3.238575642689     1.247900239853    -0.230873357177
C      3.500853956087     0.394502878413    -1.341202015157
C      3.854685827091     0.942017330174    -2.579369396257
C      3.962550267387     2.347328151598    -2.731765480545
C      3.701509107221     3.203050904234    -1.651037133969
C      3.340764033542     2.658633759728    -0.393870083590
H     -1.907920522828    -1.920223135524     1.288680888770
H      3.427993431717    -0.682756583923    -1.218935775496
H      4.049697591243     0.289362878457    -3.426696383274
H      4.256352728685     2.760598662995    -3.694128529391
H      3.801181477377     4.279461181568    -1.764004186549
H      3.241999232160     3.315149982090     0.465939013533
C      1.164572447324    -0.028355901183     2.369778901223
H      1.127789752268    -0.267131354821     3.433412922539
H      1.159202194259    -0.880462495968     1.690939324020
C      1.161502891481     1.237973103958     1.898502807525
H      3.122545861082     0.838852563366     0.767125719295
C      1.036106664016     2.453250200285     2.729711971885
O      1.479314974205     3.536582029043     2.266279817512
O      0.333036241459     2.402726860139     3.946065220415
C      0.154106283997     3.655628112511     4.620592791842
H     -0.413708340136     3.488498980111     5.561481924562
H      1.136563710074     4.109518327252     4.882724769655
H     -0.426723743831     4.365248183231     3.988390535201
Pd     0.942818043758     1.581862000149    -0.085165663990
C     -1.488719696021     0.303209648301     0.621116451985
O     -0.862020389868    -0.702909792183     0.101432113007
O     -1.117571607097     1.536092911820     0.460516319905
C     -2.682665124882    -0.009205152990     1.538612505281
H     -3.612178109835     0.351046472073     1.075595525720
C     -2.541382072351     0.644772190259     2.899628265986
H     -3.441177258079     0.430936107234     3.512484926449
H     -1.653155439928     0.231639814369     3.418533436946
H     -2.433894720246     1.743890492265     2.794532304306
N     -2.713876756098    -1.459337628950     1.709007274000
C     -3.838581488801    -2.105779910169     2.097261443835
O     -4.907084621015    -1.533598631478     2.426531160392
C     -3.774388396824    -3.583322962717     2.142421516647
H     -4.003415664486    -3.891104359856     3.175744117719
H     -4.540217278417    -3.965093130420     1.448089795813
H     -2.772298753345    -3.940642702908     1.847450806269
N      0.504009141512     1.638813161011    -2.196059642153
C      0.613603027364     2.799102813426    -2.913444870598
C      0.504189505639     2.775009403900    -4.289310908179
C      0.276299782621     1.588155790003    -4.951048563939
C      0.150253251815     0.443994013198    -4.208351487403
C      0.255111559075     0.513910465847    -2.802336574465
H      0.803442223067     3.734155577856    -2.399630356228
H      0.600100105302     3.692577490493    -4.845734806202
H      0.190662766814     1.561434120625    -6.034063583017
H     -0.043115431853    -0.509726144388    -4.657262501741
O      0.095964483154    -0.646253494095    -2.191058391593
H     -0.189936297067    -0.644598684200    -1.180403580563

