# STO-3G

title

0 1
C      1.218933426068     3.253792610448    -0.562177939917
C      2.542934184319     3.106218635329    -0.071450804859
C      3.610297076129     2.956994285249    -0.971484138765
C      3.359236079011     2.917768687081    -2.363019493909
C      2.047232292920     3.043523834206    -2.857801674794
C      0.976773162615     3.235835377677    -1.960812871396
H     -0.661038425541    -0.795353220230     3.775185531255
H      2.720519507467     3.117946386379     0.999691907480
H      4.628512838062     2.867117505059    -0.601352024474
H      4.187352808287     2.798924940578    -3.058800822731
H      1.859301151789     3.013649964896    -3.928207269402
H     -0.030956084645     3.399191091272    -2.337785709973
C     -1.091031203027     2.863625370219     2.214124416007
H     -1.811987925637     3.383485510221     2.844082633617
H     -0.171563510791     2.538132623250     2.695078322701
C     -1.318003628796     2.605352088002     0.911263194560
H      0.416181723109     3.549712268452     0.117287441247
C     -2.534051163478     2.972789724783     0.157141557530
O     -2.428531985936     3.075936532639    -1.094001785487
O     -3.700370666468     3.368924222345     0.834125755518
C     -4.836287080622     3.652860852263     0.006440656240
H     -5.697141957267     3.935312459026     0.649921426153
H     -4.623476234941     4.500483800333    -0.683492142058
H     -5.127102859735     2.754611103745    -0.584528548848
Pd    -0.159072325383     1.350860865046    -0.148722841582
C     -1.906089875673    -0.526844236972     1.305066708967
O     -2.849600585065    -0.413577827983     2.111006016614
O     -1.873806344728     0.042472516528     0.082183676222
C     -0.609651578698    -1.304760848994     1.720961122059
H      0.150019527947    -1.207484617982     0.943772223562
C     -0.879021645931    -2.770140155151     1.981212536859
H      0.062362726051    -3.271916818928     2.286189991061
H     -1.620340339513    -2.868765284614     2.801857751227
H     -1.273675308820    -3.255033813726     1.064818798446
N     -0.074454979546    -0.715205737258     2.952036145728
C      0.964932917753     0.150194360298     2.948877890623
O      1.574398189022     0.555416318153     1.921427721936
C      1.391115799578     0.630849591568     4.279280756872
H      2.237375435071     1.328723764859     4.156472059894
H      0.531417730211     1.131604080118     4.755711216616
H      1.698490059491    -0.247684495382     4.873439837534
N      0.916266979252    -0.211265377362    -1.224386749390
C      2.284652653284    -0.256985956254    -1.202172838952
C      2.959162023304    -1.140905044416    -2.021721859602
C      2.267109918295    -1.988127349301    -2.859461851915
C      0.897671757860    -1.948156629291    -2.836432812690
C      0.248345461693    -1.038413773900    -1.976516501371
H      2.837321587619     0.386668197544    -0.533060301144
H      4.036116401225    -1.163399747652    -2.000048622241
H      2.793762695195    -2.683314135806    -3.507847458044
H      0.296791726569    -2.596923203339    -3.442172515345
O     -1.071420891841    -1.123791587138    -1.983384545241
H     -1.519808031790    -0.629909693078    -1.184247246748

