# STO-3G

title

0 1
C      1.901874428272     2.907870868120     0.265800827600
C      3.197347260883     2.363984509130     0.030686627495
C      3.889408856723     2.685850261484    -1.140569550509
C      3.309139984038     3.563787013119    -2.092916514962
C      2.029213303358     4.095770902606    -1.883608960091
C      1.313391236306     3.772364637613    -0.701248933311
H     -2.970495055128     0.551416222515     1.245269894904
H      3.638373144445     1.701851868713     0.771444966708
H      4.876804268848     2.267559360078    -1.319885977026
H      3.869390564304     3.826998967640    -2.987415153904
H      1.593692427062     4.780848109699    -2.606262380661
H      0.374262408433     4.266939055725    -0.474994124316
C     -1.964013646628     2.907458360440     0.746274333821
H     -2.580058619901     3.309085709499     1.551464067691
H     -2.322541618355     3.062766358599    -0.269882855178
C     -0.837209391719     2.205844538386     0.988583166849
H      1.447047227400     2.813781036914     1.247608587917
C     -0.321550803277     1.930887240675     2.350124300652
O      0.505871551561     0.986416280244     2.466649670157
O     -0.333622305016     2.977801928337     3.287202683634
C      0.073693581220     2.616843374458     4.613461827872
H     -0.006455844963     3.504933076844     5.275874975496
H     -0.590990812055     1.821842072620     5.023708222984
H      1.129886227514     2.265196300680     4.626585313257
Pd     0.256382603687     1.430230790414    -0.516178301373
C     -1.269130913099    -0.999392353727     0.039420621355
O     -0.185026017193    -1.589819427583     0.376822781231
O     -1.348742706449     0.084189893874    -0.686949239529
C     -2.592240958351    -1.450592809499     0.705439309895
H     -2.422166981536    -2.412944869752     1.193623373006
C     -3.750696262317    -1.577753875491    -0.257973584432
H     -4.657278354725    -1.893260229592     0.297961674379
H     -3.951138096143    -0.593155804289    -0.729504886594
H     -3.517596872110    -2.326183125118    -1.042481690815
N     -2.902056151730    -0.377983590022     1.663717064827
C     -2.685671272783    -0.338846452337     3.010457300156
O     -2.716510698054     0.733135007259     3.663186306888
C     -2.415293961272    -1.612594725927     3.711179604837
H     -3.256559193272    -2.297995368111     3.517008916186
H     -1.456603513253    -2.010411308314     3.337042945607
H     -2.334881945361    -1.407242984760     4.793873817558
N      1.391708987812     0.479694623966    -2.083700480973
C      1.508885783026     1.083595110947    -3.305996391972
C      2.421141534562     0.611611751765    -4.228207803399
C      3.216814987740    -0.472873287438    -3.930912987946
C      3.062498740132    -1.076912750032    -2.711525430848
C      2.105441924329    -0.574484681252    -1.801944682586
H      0.894368382869     1.944018570805    -3.542497208447
H      2.512763365417     1.101490072993    -5.183229830434
H      3.941015121697    -0.846590409040    -4.649778277921
H      3.635505171032    -1.935109308477    -2.422552206966
O      2.020211810272    -1.254664741159    -0.678243426145
H      1.093974732225    -1.270771739734    -0.154056203092

