# STO-3G

title

0 1
C      0.300810544825     3.909087428081    -0.296173693142
C      1.497946145715     4.586880738549    -0.622302277435
C      1.660552032948     5.207705785675    -1.875176970661
C      0.620632739228     5.165283736689    -2.825181437079
C     -0.580532242389     4.501601839302    -2.507755612164
C     -0.736541772914     3.879575008504    -1.254032376076
H     -2.914227119715    -1.649681450962     2.838043952987
H      2.302687227986     4.635919052511     0.110896986563
H      2.586554768167     5.731529801195    -2.104876551331
H      0.740503394107     5.650516368283    -3.791514473556
H     -1.392742583958     4.470412083711    -3.231167250300
H     -1.666292991333     3.365281933975    -1.017161534878
C      0.154743372963     3.202496182956     1.038318250097
H      0.524238231073     3.854021705762     1.847797214145
H     -0.899670680159     3.000020073175     1.255901060800
C      0.930868227487     1.870506326410     1.064735470783
H      1.920067530643     1.955700972798     0.622770508176
C      1.045711966848     1.106693222455     2.327349129980
O      0.300674022899     1.382914711051     3.304329719411
O      1.874449362437    -0.022464625910     2.334483959407
C      1.686080587995    -0.936686785832     3.422931406130
H      2.383902059023    -1.794077600228     3.303996711727
H      1.896887080623    -0.444729208066     4.399183333137
H      0.647651023968    -1.341856958083     3.422036145360
Pd    -0.068039242520     0.552319690106    -0.169282266974
C     -1.144058091455    -1.923143260204     0.054033294381
O     -0.077804666866    -2.290122128986     0.705909787530
O     -1.160616155884    -1.329805710459    -1.086455822465
C     -2.469868718808    -2.152910289571     0.838380354834
H     -2.428596015905    -3.164345559381     1.257279670268
C     -3.715435322351    -2.002080434764    -0.008690867907
H     -4.612992060302    -2.210968147140     0.609341790318
H     -3.778454214586    -0.963726976132    -0.394494694459
H     -3.685795791396    -2.710802096940    -0.861751458463
N     -2.584313995184    -1.220994060606     1.982432905109
C     -2.325539808907     0.097240997292     2.007557577545
O     -1.794144549183     0.783015225292     1.084971044881
C     -2.741659331736     0.803315511216     3.235999504015
H     -2.185216899551     0.365801060870     4.082797577321
H     -2.488654292982     1.873480784123     3.141109739543
H     -3.829200467606     0.668888174744     3.365745104174
N      1.631663175209     0.308613727772    -1.236054485643
C      1.990349907002     1.275689408685    -2.136681490257
C      3.180246815713     1.169414371083    -2.824111435105
C      4.008267986946     0.087535967047    -2.626262625096
C      3.616372177294    -0.878660236739    -1.738002322602
C      2.389827976001    -0.745758232907    -1.048973838383
H      1.343041335643     2.126394908230    -2.303913807145
H      3.456567531685     1.941485997553    -3.523255701508
H      4.946283482888    -0.001689222156    -3.167625117263
H      4.209364185575    -1.751183469647    -1.549715836102
O      2.118653127658    -1.741800494814    -0.250499350489
H      1.132104590223    -1.910867180729     0.189151229074

