# STO-3G

title

0 1
C      0.636317158454     3.821124457996    -0.715912762911
C      1.446207308571     4.618771347409    -1.558857573796
C      0.908830904443     5.281132151433    -2.676481981088
C     -0.463030787259     5.159233061855    -2.973419511156
C     -1.280312019032     4.373153123324    -2.140686418239
C     -0.737365155151     3.708819782363    -1.023035726216
H     -2.850426423785    -1.803424365800     2.666314654978
H      2.508210259772     4.720768105292    -1.333415588098
H      1.552884146026     5.888229801868    -3.309572768663
H     -0.885540942604     5.668228741838    -3.836928967633
H     -2.340829817226     4.270722255876    -2.361428234206
H     -1.392290219981     3.103218394125    -0.403736991307
C      1.287770040624     3.148936766377     0.484910974482
H      2.292586340101     2.802992377973     0.205534089844
H      1.462348653937     3.919877727166     1.257829023022
C      0.510975479285     2.001292169677     1.132964950201
H     -0.484933208773     2.306040101576     1.452272777038
C      1.158909539914     1.238450043931     2.224678234624
O      2.390141655860     1.371667865330     2.449020653952
O      0.364996805558     0.358887809725     2.974946648477
C      1.072773893279    -0.529324591722     3.851021795414
H      0.347705106748    -1.201562175983     4.358608777973
H      1.783603735761    -1.168240276595     3.277200693427
H      1.632262418058     0.039020971830     4.627999552126
Pd    -0.101749264310     0.515910398565    -0.173439133604
C     -0.901766731034    -2.051635765006     0.090823423209
O      0.056422641285    -2.261368689234     0.952886903938
O     -0.758644744953    -1.592975464534    -1.098469434451
C     -2.324384173079    -2.306041584882     0.679310726706
H     -2.325316362355    -3.312953093754     1.111007272359
C     -3.441031226751    -2.190119260063    -0.336124890838
H     -4.413542547222    -2.397572433888     0.156110086870
H     -3.461578363188    -1.163017679855    -0.754808331226
H     -3.285364130346    -2.918177212074    -1.158709808969
N     -2.606059526328    -1.367647685174     1.786305524645
C     -2.458488516743    -0.034409760247     1.766042929904
O     -2.012945559041     0.659353857847     0.800061377845
C     -2.904364486421     0.677934963068     2.979934279296
H     -3.965983057979     0.429277455627     3.148940954886
H     -2.282551923822     0.326436593034     3.821114880289
H     -2.780721848360     1.765875568093     2.837714355238
N      1.765609213473     0.320640736892    -0.931010598048
C      2.143065700410     1.102965182331    -1.989554023750
C      3.431088511192     1.029417575709    -2.476268674506
C      4.341477233923     0.160163590801    -1.917751011538
C      3.927798726864    -0.644820518452    -0.889702620573
C      2.598254326640    -0.556556041106    -0.420760619620
H      1.433378882065     1.788691614992    -2.436064667604
H      3.722350123479     1.662282930286    -3.298143967546
H      5.359125972714     0.102458342499    -2.294393488971
H      4.580420035468    -1.357760520788    -0.427498245095
O      2.297992330792    -1.405108458858     0.525301138790
H      1.257716545728    -1.747323218374     0.709290455079

