# STO-3G

title

0 1
C      2.093578675784     2.601751617342     0.212595031854
C      2.670910925351     2.662638339818    -1.074399161200
C      3.269429576767     3.843825388036    -1.552370948618
C      3.311928640943     4.993399816618    -0.742197622332
C      2.769358708751     4.941093271022     0.556850440096
C      2.175104218816     3.756995225720     1.028793278799
H     -0.721834712197    -1.376897965781     0.667917576372
H      2.673920288938     1.774079846404    -1.701310840189
H      3.707132929599     3.859459853677    -2.548288890888
H      3.774420547622     5.906849188797    -1.108498317298
H      2.821604883885     5.815083068581     1.202374797052
H      1.790907088910     3.729074425514     2.048192804205
C      1.447584331833     1.327524869488     0.731341825362
H      1.663617729768     0.482790297310     0.074031772729
H      1.922035244096     1.049293716334     1.685867432500
C     -0.074333318023     1.358976460301     1.018680887842
H     -0.273094197799     0.680627235512     1.845243197213
C     -0.765305414205     2.641890015444     1.234632645056
O     -1.515432386972     3.053411505006     0.309540134015
O     -0.913737045860     3.111261792961     2.551080626459
C     -1.694710006402     4.304754663434     2.701135198300
H     -1.724508334552     4.592897028169     3.773975681064
H     -1.245177798378     5.146388669639     2.126456759904
H     -2.741499443490     4.138488743696     2.358372410222
Pd    -1.334395875248     0.589865026663    -0.431512215909
C      0.820515618516    -2.891899527400     1.107006509507
O      0.830459824361    -1.876132220712     0.254497291873
O      1.709383826846    -3.733942538819     1.334504529013
C     -0.552470783066    -2.934773324846     1.929931298960
H     -0.315534359624    -2.895600769406     2.999667850990
C     -1.341080519845    -4.188023216488     1.622152787499
H     -2.255422246864    -4.227611007648     2.244652379481
H     -1.627716173050    -4.187898261839     0.549973739249
H     -0.724066085965    -5.085833964804     1.835661001515
N     -1.294758628292    -1.764553071942     1.454388254200
C     -2.328776134368    -1.028763492833     1.807333903370
O     -2.627792749433     0.055704137726     1.170076244338
C     -3.144907266274    -1.415148165724     2.965994201064
H     -2.481236510573    -1.502346102549     3.842275707861
H     -3.904248750405    -0.631457113556     3.137799317156
H     -3.638990290114    -2.374298724433     2.740868883125
N     -0.119841855387     0.923550012070    -2.033126117600
C     -0.384832139592     2.093321123387    -2.695821332387
C      0.207535872881     2.350269840057    -3.913374777016
C      1.083783566853     1.448252294663    -4.468630342025
C      1.360989771745     0.300913767688    -3.776098204255
C      0.751485676354     0.065181005502    -2.521181468312
H     -1.083099193025     2.806811785481    -2.275542831905
H     -0.015939878079     3.271295679503    -4.425839938953
H      1.555853865591     1.648278811781    -5.426732309151
H      2.057198932836    -0.426344908553    -4.144412393663
O      1.168526472305    -1.025582959731    -1.953354378948
H      1.026485277147    -1.429384268493    -0.933402951754

