# STO-3G

title

0 1
C      0.589126278937     3.891074875837     0.203534594519
C      1.783084113118     4.531428526111    -0.199926062195
C      1.819775269275     5.333710839710    -1.356163331238
C      0.655153788410     5.513945010508    -2.128394755827
C     -0.542674298731     4.888415450392    -1.730794787913
C     -0.572918280504     4.083959495107    -0.575666134087
H     -4.132449358781    -0.945940339885     1.520469875037
H      2.686206726709     4.407855048079     0.397302217351
H      2.746891345813     5.824122908360    -1.646814108201
H      0.678713452407     6.139038216478    -3.018511395478
H     -1.449074990887     5.027494786417    -2.316820630888
H     -1.496612559395     3.593646028598    -0.276338586800
C      0.575840929169     2.979850816508     1.418418860269
H      1.144135674809     3.446663957136     2.239225405622
H     -0.445445866260     2.832683343135     1.781983044852
C      1.202676575746     1.609528004699     1.091476598439
H      2.124057072887     1.708070088623     0.524326606643
C      1.400952682755     0.610691192768     2.165051716306
O      0.526924908241     0.483371083221     3.060535805880
O      2.416135106388    -0.342394270404     1.996881698919
C      2.409778462049    -1.443519761033     2.916097503209
H      3.252529829323    -2.127051263020     2.674501292381
H      2.534755080602    -1.088558659688     3.963993587565
H      1.464376069520    -2.026187729763     2.829685481053
Pd    -0.118572902245     0.614997802199    -0.144221950217
C     -1.227927948381    -1.767683241446     0.331402745254
O     -0.087786147635    -2.360034193253     0.543191240218
O     -1.631083066642    -1.243764519619    -0.766516905830
C     -2.100497216864    -1.640903501395     1.625431335891
H     -1.411160593371    -1.327780768097     2.418855190215
C     -2.723470307660    -2.961260708935     2.027076340910
H     -3.278450703232    -2.836225550123     2.979952128749
H     -3.429754756716    -3.290988724613     1.237607576469
H     -1.936680155471    -3.731653919469     2.165431818523
N     -3.167995994600    -0.643572041176     1.484645942297
C     -2.937993474997     0.653054941908     1.238084720711
O     -1.812852201754     1.190126615536     1.013497546955
C     -4.121707538345     1.534769602884     1.245134764627
H     -4.599312206555     1.450445729673     2.236247244770
H     -3.801034118679     2.574519361200     1.059978234464
H     -4.808956915708     1.194920497936     0.450628601781
N      1.403219145332     0.308217955981    -1.439988864924
C      1.727971932752     1.378657587985    -2.231046089219
C      2.786602559036     1.292535526486    -3.108367946972
C      3.517159775054     0.130896627902    -3.211294584943
C      3.162555048058    -0.932932648091    -2.425470495529
C      2.071830113724    -0.820214795937    -1.533148211533
H      1.157195779225     2.296044604500    -2.160927518129
H      3.037340146099     2.144658884973    -3.718686702530
H      4.351259192182     0.057489526691    -3.904018024983
H      3.684895059061    -1.867771296540    -2.467981452409
O      1.826716742286    -1.904392966622    -0.860905147843
H      0.919805283864    -2.082761021747    -0.231570078886

