# STO-3G

title

0 1
C     -0.013766239073     4.093755433054    -0.727896662639
C     -0.250704232643     4.822924018031     0.460301251294
C      0.219644740105     6.140461346178     0.608597976062
C      0.937290241994     6.757010185704    -0.435138019471
C      1.176334328076     6.044190147587    -1.626094495403
C      0.704665518066     4.725517186045    -1.768114286889
H     -3.300215608807    -1.142913900260     2.696898393259
H     -0.806579035136     4.354875852202     1.273022816897
H      0.025394544093     6.684920922608     1.530524030989
H      1.299758119456     7.776438620205    -0.323386075564
H      1.723473280649     6.515703499556    -2.439826470815
H      0.888887435459     4.185630796324    -2.695763224575
C     -0.477973962318     2.651880572734    -0.857515117218
H     -1.412890332805     2.490385900320    -0.317768833091
H     -0.676352732894     2.404900277617    -1.906091431459
C      0.595815631519     1.669783263929    -0.335600171357
H      1.508605903974     1.747739234622    -0.919987081787
C      0.950817958098     1.670514189429     1.101980556728
O      0.030592714650     1.718189909506     1.960374412475
O      2.258008728205     1.300791426531     1.456244237782
C      2.469237993393     0.982205650729     2.838508308735
H      3.533592150651     0.702839218519     2.992236024210
H      2.237434708639     1.855931208286     3.488530231094
H      1.841491285021     0.112717700650     3.142056940257
Pd    -0.148223284256    -0.223109624178    -0.659334112458
C     -1.202454667673    -2.412719366105     0.577284612227
O     -0.308090244910    -2.287075126866     1.520863275746
O     -0.958725534263    -2.444149629508    -0.681304700709
C     -2.665798106630    -2.391668334305     1.109196210932
H     -2.748319154361    -3.158154363909     1.887621278271
C     -3.713426861907    -2.633903635063     0.044113876897
H     -4.721991144770    -2.615668431068     0.506324437994
H     -3.656699280470    -1.835352599653    -0.723708683035
H     -3.548767812074    -3.620129101838    -0.436421543004
N     -2.947327150150    -1.092319655443     1.749897843808
C     -2.657825848499     0.119584068812     1.248354594757
O     -2.095952683800     0.349638918684     0.135207014068
C     -3.094511430027     1.266979867815     2.069811467499
H     -2.553815701494     1.213497672618     3.030800233080
H     -2.838566562422     2.205917719936     1.553318329510
H     -4.184434580314     1.191681966492     2.224742274929
N      1.732568441477    -0.812466228267    -1.129589431897
C      2.264247379081    -0.497038466839    -2.350776976497
C      3.566376907881    -0.835904609568    -2.647084893830
C      4.340904709655    -1.506184395427    -1.726890442563
C      3.780419588709    -1.837247174343    -0.522433775387
C      2.439695594792    -1.484460820411    -0.248018050230
H      1.665253479540     0.040465360868    -3.076763230386
H      3.980129684612    -0.572132085622    -3.606653142136
H      5.369157069483    -1.774571343925    -1.954448290177
H      4.325234261329    -2.372474233898     0.229235933538
O      2.008490514536    -1.883799335592     0.914780982128
H      0.926041933308    -2.018402601297     1.165682860857

