# STO-3G

title

0 1
C      1.934476225835     2.689626589260     1.126792592004
C      1.845096751923     2.987205558845     2.505920571475
C      2.486130068709     4.116039297490     3.048478216690
C      3.228376943395     4.976660451750     2.215918668409
C      3.322536877309     4.695348319307     0.839415367473
C      2.681477521271     3.562487799511     0.304040532553
H      0.950203346668    -2.475219227296     3.282531622651
H      1.271772332651     2.334008503457     3.160279233968
H      2.409976112608     4.324804562162     4.113554654315
H      3.726142498679     5.849376810207     2.632332057035
H      3.893908334020     5.351308244779     0.186095928331
H      2.755688114703     3.350999956122    -0.762538840730
C      1.209897570995     1.491906992078     0.525370148160
H      1.662415352435     1.219455249843    -0.434721264937
H      1.322830563650     0.613327888851     1.170361306573
C     -0.307748423755     1.774167518350     0.339157820565
H     -0.814617749289     1.868408076190     1.298941740963
C     -0.732074152508     2.864664957546    -0.566147663147
O     -0.007674923654     3.195885402177    -1.541520813408
O     -2.058534147195     3.319361699617    -0.464443766943
C     -2.430022733917     4.362879722261    -1.376816984508
H     -3.488078293083     4.651811189086    -1.197785993636
H     -1.793333185587     5.264445594303    -1.225097149801
H     -2.334821342368     4.021069217924    -2.432808409679
Pd    -1.083957403512    -0.063012350511    -0.186539375618
C     -0.046759417996    -2.573544609675     0.164914035004
O      1.117681852272    -2.056904977068    -0.145590727876
O     -1.113615792064    -2.498509809316    -0.533715205525
C     -0.054098164998    -3.224028461848     1.579629960891
H      0.766800732286    -3.949294799018     1.609518602029
C     -1.354177867583    -3.915702412342     1.929842859979
H     -1.273841727279    -4.367958449186     2.939960000144
H     -2.181746964328    -3.177059598254     1.931069921059
H     -1.573960929031    -4.712806932677     1.189948321201
N      0.225691465244    -2.216646151386     2.624437610963
C     -0.338552023137    -1.005223846653     2.752222277890
O     -1.136811169019    -0.450360123216     1.941547432590
C      0.009063843554    -0.269498536053     3.984349481260
H      1.101000976939    -0.107428511481     3.989252792144
H     -0.529378038236     0.693856400916     3.996662088368
H     -0.293158953238    -0.886374647953     4.849021933146
N     -0.807641837020     0.278586114344    -2.161424374658
C     -1.802312534191     0.855249094346    -2.904566484972
C     -1.612461565925     1.099203024976    -4.247505873234
C     -0.420981049282     0.771523724938    -4.854982691426
C      0.553761530683     0.176206109403    -4.100025926846
C      0.327272353883    -0.072291878664    -2.727525334811
H     -2.737336447940     1.131096608374    -2.431015527035
H     -2.397752644571     1.562683445781    -4.820694184702
H     -0.261002484312     0.972170462237    -5.910878014126
H      1.498551547314    -0.110652870060    -4.515809089239
O      1.314037218877    -0.664932876019    -2.115876797702
H      1.192971353528    -1.290822398654    -1.172456430278

