# STO-3G

title

0 1
C      2.349152204016     2.262183495943     1.205796281684
C      3.185506225007     3.147171887510     0.489248585596
C      4.028207903561     4.051117002777     1.162870415297
C      4.048517189908     4.084357443882     2.570682080184
C      3.220107897480     3.205878223851     3.297018016068
C      2.378293325710     2.305525918649     2.618576119825
H     -1.081652974179    -3.208988759019     3.000483975147
H      3.175918600642     3.123568688216    -0.600485303115
H      4.668083154562     4.720938658677     0.592252586996
H      4.702211485054     4.779498360254     3.092590535248
H      3.234627925505     3.221139028792     4.384823247217
H      1.742145060742     1.627596473966     3.186169186005
C      1.402849879545     1.318811916251     0.477035023051
H      1.784486890725     1.074346549435    -0.521272430679
H      1.328146775916     0.372693174861     1.021579891854
C     -0.019960544887     1.935264170228     0.373607398003
H     -0.449193627943     2.109124466138     1.359362066050
C     -0.233265456389     3.114211227615    -0.493144815340
O      0.504791206883     3.300658818534    -1.496558598302
O     -1.414453050773     3.856294932429    -0.314736668230
C     -1.585196520075     4.974074107644    -1.198427694547
H     -2.539407850548     5.491651023428    -0.961007145267
H     -0.753615795017     5.705028528942    -1.074759200387
H     -1.623315314757     4.639569155926    -2.260561207570
Pd    -1.157671307113     0.293878762095    -0.123812149212
C     -0.128186140052    -2.246956647970     0.024546084278
O      0.880197761246    -1.901147840111    -0.727623887239
O     -1.368239041827    -2.204878146458    -0.276659224892
C      0.316470976191    -2.645638734568     1.469471656742
H      1.175863537322    -2.007067237730     1.705573211219
C      0.756722787497    -4.092130684512     1.549354065941
H      1.126723307120    -4.314061834883     2.571826427922
H     -0.105836462861    -4.753210901574     1.325045962159
H      1.571201160245    -4.286429517850     0.820639586757
N     -0.750677765523    -2.424197724854     2.454482306827
C     -1.372616173734    -1.248385426233     2.628211907900
O     -1.161290517357    -0.187375188359     1.970331314276
C     -2.372311375671    -1.197295526084     3.713394165030
H     -1.863515576477    -1.462390854979     4.656090463426
H     -2.789564567424    -0.177237392778     3.775079058211
H     -3.168490292749    -1.927045391191     3.483081258733
N     -1.239301875053     0.765742975436    -2.089498330659
C     -2.263934235979     1.566499244789    -2.518418732106
C     -2.341536888118     1.946524611088    -3.840370574531
C     -1.392893460119     1.525231387615    -4.744736279961
C     -0.388772409919     0.707200730380    -4.302058927582
C     -0.334235568672     0.328951821603    -2.941161247051
H     -3.009072808791     1.912618225224    -1.811513998049
H     -3.147464318710     2.583370192751    -4.164932668040
H     -1.444463791181     1.827373694342    -5.787295469977
H      0.375149736397     0.340633413074    -4.958033989356
O      0.649962079914    -0.467636120630    -2.647866598307
H      0.713629437270    -1.136221769017    -1.730282231563

