# STO-3G

title

0 1
C      1.940031877881     3.168239765775    -0.028444118409
C      3.129074735924     3.506870006182    -0.720142764713
C      3.253148387452     4.717638758699    -1.423059139240
C      2.179997586078     5.630442800594    -1.449879307059
C      0.992936942831     5.310305813301    -0.767345393326
C      0.872622769754     4.092458613834    -0.066549165724
H     -1.136297236755    -1.055003386196     0.281953568311
H      3.962702642800     2.804683007652    -0.714815353997
H      4.179334616573     4.945364597526    -1.946023527676
H      2.270607314600     6.571200766231    -1.987443844444
H      0.157060213150     6.006563037664    -0.772184805462
H     -0.067823177407     3.880139682811     0.433072079651
C      1.918827288013     1.826050740213     0.698658836857
H      2.454540074423     1.099949136201     0.079742978706
H      2.530994477259     1.933402686589     1.612444597540
C      0.596876869740     1.159193733851     1.121044570129
H      0.754020318137     0.082825153173     1.189303258543
C     -0.106117224364     1.628798591104     2.343786730066
O     -0.089385653925     2.848288907160     2.653549833478
O     -0.610643441246     0.666795510061     3.239614724537
C     -1.076087412648     1.168458277672     4.500933941610
H     -1.450285942595     0.324661219279     5.119491978774
H     -0.247501426904     1.663394090817     5.057307761809
H     -1.906109803343     1.897069819148     4.357359932981
Pd    -0.714386418271     1.093820814644    -0.506868747232
C     -0.135125228450    -2.885249092332     1.090861340761
O      0.336135663469    -1.931866370782     0.302552523300
O      0.437334192146    -3.899884924012     1.532192291872
C     -1.655113168531    -2.585847197336     1.486714682449
H     -1.736162435557    -2.619108450776     2.579066648619
C     -2.601157795635    -3.587684410339     0.865391608226
H     -3.645685702014    -3.352288148502     1.150171545106
H     -2.511457686303    -3.538352777501    -0.239666703247
H     -2.349381262505    -4.612322894047     1.209928068941
N     -1.934983468154    -1.258952684768     0.925478682863
C     -2.658812629564    -0.205178991349     1.249726126105
O     -2.405218451651     0.963290556042     0.749329552605
C     -3.785670452597    -0.320067490045     2.187083575922
H     -3.887406284406    -1.357177475792     2.541608970301
H     -3.582939619974     0.356751158963     3.032466034585
H     -4.700512346489    -0.005145848108     1.656068832511
N      0.752837645210     0.992057223488    -1.942340735321
C      0.753499503095     2.077093185247    -2.780790874772
C      1.630038528636     2.138680702767    -3.841554458892
C      2.532356899837     1.126216754426    -4.060781533819
C      2.528795427991     0.057506571655    -3.206828709027
C      1.612736794100     0.012148336291    -2.129698159359
H      0.051563406633     2.885782974160    -2.615178877732
H      1.621114313075     3.002749283823    -4.484874318948
H      3.235729078415     1.176608490028    -4.887522545592
H      3.217494503844    -0.756136343141    -3.319565697374
O      1.765856653453    -1.040520061746    -1.384891943112
H      1.145604132862    -1.464342967746    -0.581720959146

