# STO-3G

title

0 1
C     -0.420192298453     3.901673577255    -0.814013823054
C      0.544962106847     4.921794033739    -0.643537495677
C      0.164155520218     6.224706715999    -0.274246374884
C     -1.195035024639     6.536534096043    -0.072720902207
C     -2.167851175337     5.535568472722    -0.256888193677
C     -1.780977788633     4.233247032501    -0.626941353792
H     -3.748914601429    -1.357707287441     1.858890848046
H      1.598969387085     4.702365346596    -0.812045513984
H      0.922586120910     6.995142293333    -0.150846640340
H     -1.489950862321     7.544174270668     0.211516597151
H     -3.221728881530     5.771382630566    -0.123225437288
H     -2.539255459963     3.469927751819    -0.791761475595
C     -0.013627457492     2.477430192897    -1.171837401034
H     -0.895759293714     1.937561057184    -1.526350520031
H      0.723478928024     2.480735854094    -1.984528090849
C      0.547652044856     1.704890182569     0.049411049751
H     -0.148070080530     1.734731795736     0.890435368180
C      1.913467260471     1.995320678450     0.535882167531
O      2.796334067330     2.378550605505    -0.278894106363
O      2.235756623691     1.657110239121     1.860036795898
C      3.618694063502     1.780111720354     2.219520624971
H      3.750528206760     1.477587982012     3.280769642471
H      4.251301729840     1.113465279679     1.589730096024
H      3.964661888050     2.832806706113     2.109918366832
Pd     0.219444913566    -0.264078206407    -0.450081234059
C     -1.120272660080    -2.500460125555     0.367232194865
O     -0.549350894581    -2.384379330985     1.535135838509
O     -0.511557886658    -2.486791013928    -0.761780291060
C     -2.676615916229    -2.511152256440     0.440448307952
H     -2.976400129932    -3.325708859708     1.109084311431
C     -3.358554260339    -2.677134506043    -0.900310387202
H     -4.458988751635    -2.679020296707    -0.758202325388
H     -3.084475497086    -1.834098206525    -1.567056353434
H     -3.048922636617    -3.633359257965    -1.370024744134
N     -3.147804786149    -1.251352528984     1.052088800468
C     -2.727994422993    -0.019316445832     0.729978350782
O     -1.882918493255     0.270032610488    -0.168192372272
C     -3.328517215764     1.084945586039     1.503706839183
H     -4.418449664964     1.064542056012     1.333773038354
H     -3.099288203056     0.915499231437     2.569748543293
H     -2.901477457870     2.047188671050     1.171323040213
N      2.175524308486    -0.794253075971    -0.363804069980
C      3.042207399271    -0.408010061060    -1.351931404908
C      4.372021194018    -0.764174215244    -1.283253321688
C      4.843873052450    -1.509048779265    -0.227168909028
C      3.958515149779    -1.895441067878     0.743007151296
C      2.596127662925    -1.533238446911     0.638798823120
H      2.683547162160     0.193554096419    -2.179248285912
H      5.046458593199    -0.441183087168    -2.059283593044
H      5.892694115397    -1.787100221088    -0.166780722891
H      4.260118664337    -2.489625591924     1.582451546732
O      1.851228776561    -1.988372417480     1.605684774054
H      0.747094407878    -2.110703003126     1.548423633499

