# STO-3G

title

0 1
C      0.166399552087     4.156267774184    -0.281638417206
C      1.196496195354     4.990171813485    -0.771238029709
C      1.388020072097     6.284671543338    -0.252341776624
C      0.548146368649     6.768250993058     0.769499616385
C     -0.482811300857     5.946066242097     1.266148917302
C     -0.669413656993     4.652722653328     0.744813517478
H     -4.536380190393    -0.910373685489     1.217929287715
H      1.851850393444     4.622856473416    -1.561081883948
H      2.185736229958     6.912518667654    -0.643996877445
H      0.693668220537     7.768622533923     1.170976886941
H     -1.136844794400     6.313139182351     2.054556195411
H     -1.465878971155     4.020168083125     1.134243215386
C     -0.014289497662     2.738290955049    -0.804619342328
H     -1.073143183713     2.471419345843    -0.782606603152
H      0.330326176155     2.666561293221    -1.843212774195
C      0.739967155109     1.721626426015     0.086750360301
H      0.420221719815     1.799104855735     1.128997762669
C      2.216724050666     1.667543757205     0.032072601514
O      2.810710354671     1.971270823207    -1.038294800576
O      2.898222817513     1.064086202889     1.101422135328
C      4.303773125525     0.853030663359     0.909465081015
H      4.729033456106     0.366599866136     1.813736943345
H      4.487227110874     0.182823064329     0.038505514865
H      4.831749911527     1.820633882651     0.751307390944
Pd    -0.194697012185    -0.079360747468    -0.249521321499
C     -1.452240661195    -1.996303459424     1.200133338306
O     -0.384658348026    -2.277667620073     1.880590400997
O     -1.559297372146    -1.995184227424    -0.081410178032
C     -2.649689864250    -1.504477061638     2.070324567460
H     -2.204460823345    -0.930442878416     2.891829809398
C     -3.442622740509    -2.654442305952     2.654090762131
H     -4.239994463052    -2.259252047520     3.317100149591
H     -3.910273179941    -3.234750781449     1.831994703099
H     -2.777609640394    -3.318540034424     3.244628637425
N     -3.564073279160    -0.643793823516     1.304727166917
C     -3.164505186325     0.454448005739     0.649342980459
O     -1.971164828642     0.868366622929     0.550644280087
C     -4.229078464128     1.254240274990     0.011898438527
H     -4.729392619481     0.617707266081    -0.738001534556
H     -4.939773121943     1.557268128084     0.799486586430
H     -3.785967916178     2.144798856829    -0.469035192888
N      1.439273572261    -0.974578599247    -1.055863275933
C      1.854178665600    -0.569183665126    -2.297401790323
C      2.960482484185    -1.147096291121    -2.881380463817
C      3.662362050648    -2.132663684642    -2.227606817322
C      3.224797392218    -2.532110092759    -0.993721033797
C      2.075670709966    -1.936324580611    -0.425071696393
H      1.318684195967     0.218829014481    -2.814211164933
H      3.284759119428    -0.807482523696    -3.851383212192
H      4.539627563502    -2.585958940100    -2.681418607975
H      3.718605803439    -3.306257347753    -0.440861690698
O      1.750913879431    -2.429360707837     0.734075150767
H      0.767282288835    -2.317764955275     1.228939029164

