# STO-3G

title

0 1
C      1.101840745435     3.878141235027    -0.066730734140
C      1.922809121643     4.723860037162    -0.850138683245
C      1.369427572057     5.671507621010    -1.728789031717
C     -0.029786929789     5.793588497464    -1.840344997503
C     -0.856764271535     4.960547698688    -1.064745679078
C     -0.298897211451     4.009800793059    -0.186850106910
H     -4.225184008786    -1.023414033854     0.703605868403
H      3.006593152216     4.637487684094    -0.766858660373
H      2.022505204585     6.310063639890    -2.320251378999
H     -0.465142611664     6.524308836091    -2.518452025613
H     -1.938733042238     5.046695103638    -1.144578379181
H     -0.961072577512     3.372922000018     0.390909738907
C      1.776404950767     2.888241213963     0.874622030413
H      2.672898177430     2.480088287074     0.386486961077
H      2.164484707001     3.452228360990     1.742305670341
C      0.913099030218     1.744599931243     1.408539226970
H      0.024093191639     2.102811727130     1.924863397407
C      1.551355013961     0.685040704620     2.219860214304
O      2.799600457566     0.674347605141     2.380795358007
O      0.748203613207    -0.392973581062     2.624616593981
C      1.438949515808    -1.489368766342     3.241662390052
H      0.710795595138    -2.287628851646     3.501824566323
H      2.191013554221    -1.927634556862     2.545006496068
H      1.949890590365    -1.162537216033     4.175555048747
Pd    -0.087299541485     0.594761796956     0.012533357413
C     -1.183396042425    -1.833673981448     0.140714183973
O     -1.333525368804    -1.139731206517    -0.935571814553
O     -0.157554730051    -2.556544041364     0.463527329812
C     -2.276189372113    -1.733732778662     1.259678983157
H     -1.736970730199    -1.444994075544     2.170093987060
C     -2.970396492268    -3.054712497981     1.514874278629
H     -3.695237830823    -2.939948309592     2.347346972886
H     -3.516460020727    -3.366807618816     0.600938118574
H     -2.228301207981    -3.834202925697     1.785683794166
N     -3.296647186119    -0.718858817435     0.966297733787
C     -3.036382434161     0.592707387558     0.896773152737
O     -1.894498414339     1.137170364701     1.001215091703
C     -4.199985191802     1.478672795164     0.701175282628
H     -4.900725083067     1.307054058798     1.535969937211
H     -3.859096951803     2.528550950727     0.691794946211
H     -4.671771326737     1.218636958226    -0.262811089735
N      1.594057627616     0.268639473881    -1.080172258420
C      1.921136831636     1.247015434525    -1.981775019287
C      3.097191386351     1.164059123582    -2.696028213732
C      3.943042066096     0.091684403754    -2.527340619065
C      3.570772421046    -0.899416229619    -1.658946164757
C      2.351086791544    -0.794463418252    -0.953366200017
H      1.260048718780     2.092298998302    -2.126303019791
H      3.351362944480     1.949692673524    -3.388350893463
H      4.873602716180     0.023449678632    -3.084370386485
H      4.170885190783    -1.773843537049    -1.505963030732
O      2.080282612615    -1.830404684590    -0.205858795202
H      1.067447723165    -2.109824265833     0.078395584924

