# STO-3G

title

0 1
C      1.625515637442     2.233790046385     1.004016110964
C      2.810059350954     1.582962150169     0.537425894262
C      3.738188072511     2.267679578265    -0.249359931190
C      3.514546287295     3.620819787514    -0.620353189098
C      2.354545449298     4.275990846150    -0.200878855652
C      1.399629489174     3.594645736954     0.606616224940
H     -1.742621795967    -1.835348810560     1.437119513915
H      2.978232297231     0.542859814166     0.802860436681
H      4.638876500266     1.757242785775    -0.581235214278
H      4.252376505492     4.145381783785    -1.222500080044
H      2.177511322791     5.314535761610    -0.468727033753
H      0.591798598787     4.168246835016     1.054912161065
C      0.647244338151     1.538385840498     1.964839200611
H      0.980979855582     0.518089396245     2.160714008400
H      0.613183866777     2.049784275781     2.933359144246
C     -0.702278719539     1.527889662941     1.203595117201
H     -1.071130095551     0.534245366015     0.964496966056
C     -1.811974750297     2.421721935892     1.596132445282
O     -2.963397189241     2.189643870616     1.150301274878
O     -1.541581333477     3.573296118886     2.354500870698
C     -2.673126416345     4.396634936915     2.671629950502
H     -2.338370148170     5.267044198721     3.276700398639
H     -3.155755927111     4.783022956155     1.745005061892
H     -3.422676635017     3.827945996646     3.267934427177
Pd     0.062930413213     2.039913081446    -0.643504635515
C      0.310181186315    -1.674282899083    -0.154077599490
O     -0.932791421599    -1.315739269362    -0.565772421078
O      1.372355259985    -1.399316661812    -0.743734664492
C      0.245474001451    -2.435151899782     1.189526494570
H      1.169883680756    -2.245522223575     1.741564844517
C      0.082005950897    -3.926859055826     0.996483636374
H      0.082632406909    -4.427657207194     1.986759417074
H     -0.888160663855    -4.128503408521     0.497172377789
H      0.913555676693    -4.329704457010     0.382268612806
N     -0.888856683049    -1.948798516279     1.974603251022
C     -0.727713616938    -1.383400435174     3.198662269717
O      0.375564330824    -1.239812771495     3.781209374338
C     -1.952154540464    -0.889619421614     3.866807583861
H     -2.041455113796    -1.427266178847     4.825412790874
H     -1.821908353390     0.189517705056     4.045082106985
H     -2.845289175114    -1.075068247574     3.243688860304
N      0.611786376388     1.981895087124    -2.803217699491
C      1.459165177555     2.357308894363    -3.806562452823
C      1.352255191623     1.760936190510    -5.051110597914
C      0.401960100388     0.784060217786    -5.286674326404
C     -0.434494837138     0.421420252911    -4.260229928211
C     -0.285232422731     1.060885041572    -3.013376127572
H      2.208163972570     3.119421901856    -3.625007931256
H      2.023447691781     2.058855027819    -5.839577862746
H      0.321014320981     0.311826437639    -6.262107640098
H     -1.189584301654    -0.330276265317    -4.367473454038
O     -1.063742609161     0.703317518260    -2.001831026271
H     -0.994925577359    -0.570712509561    -1.296617798147

