# STO-3G

title

0 1
C      1.719104386492     2.304552584342     0.964430097634
C      2.887879778999     1.654641859105     0.457798489313
C      3.771925060711     2.331256277254    -0.385016245446
C      3.517395292737     3.673970667147    -0.773494681234
C      2.369419145364     4.326373547606    -0.317313112002
C      1.459949682057     3.652681011162     0.546442856631
H     -1.771516125670    -2.097373326694     1.484655923191
H      3.074843267462     0.620977158516     0.734864510227
H      4.661522691019     1.822309754250    -0.747766507272
H      4.222034961381     4.192965429721    -1.418818416588
H      2.168174758036     5.356531504400    -0.600067429267
H      0.662584483992     4.224842998469     1.014958471420
C      0.795380947719     1.625057367610     1.987933602437
H      1.163023564582     0.627962678670     2.235594033758
H      0.762581504754     2.190453136139     2.925600357554
C     -0.573473092305     1.523350918275     1.271156437073
H     -0.894473829106     0.503289031470     1.076985214691
C     -1.715551394931     2.363164499248     1.689190028380
O     -2.882267027817     1.974836305162     1.428472139478
O     -1.476865933874     3.621672884814     2.266239707203
C     -2.641366059348     4.373431522287     2.637028069268
H     -2.328599681031     5.340541402353     3.087101411374
H     -3.273227107178     4.592953723533     1.746282126445
H     -3.246371286700     3.820371016368     3.391280133217
Pd     0.098796327286     2.034009306747    -0.610495002984
C      0.373184139023    -1.652135525198    -0.031482779053
O     -0.865298489536    -1.366485420498    -0.501632549815
O      1.446314372079    -1.305201250423    -0.562062038079
C      0.291453104663    -2.431880746411     1.302647014351
H      1.165268621899    -2.168853082314     1.904834139269
C      0.267587407927    -3.929581421957     1.091593313778
H      0.251218025995    -4.439280937648     2.077161123586
H     -0.649674015980    -4.207638135832     0.532726944050
H      1.165927833701    -4.253705314812     0.526848808818
N     -0.916859660192    -2.054471033406     2.030571054015
C     -0.875971619344    -1.323108252125     3.174766619755
O      0.171224693553    -0.938698598232     3.750355066919
C     -2.194086141084    -0.966513694406     3.739381941133
H     -2.039501622913    -0.371931812287     4.656278700451
H     -2.746907663045    -0.383714044193     2.982871778576
H     -2.729068812175    -1.903863647328     3.970259776173
N      0.548560959419     1.972962734441    -2.797393962751
C      1.337600479617     2.358320782013    -3.843687362340
C      1.183232297862     1.749463354374    -5.077217261363
C      0.244013867438     0.750673741662    -5.259125294519
C     -0.533015672936     0.378382298216    -4.190284661034
C     -0.337345447252     1.031562423791    -2.956943299789
H      2.077589387138     3.137960174262    -3.704505983399
H      1.808110170171     2.055734310774    -5.899853109702
H      0.125396494350     0.269356246169    -6.226247377941
H     -1.276903853285    -0.389268376447    -4.255515593451
O     -1.060026954428     0.667080977409    -1.906895407239
H     -0.944685155005    -0.606001569695    -1.215894210960

