# STO-3G

title

0 1
C     -0.536642879807     3.657110413309    -0.885094476143
C     -0.741385743936     4.817828052053    -0.107542349588
C     -0.477934112063     6.097219220701    -0.632528222291
C     -0.011387131933     6.235046035539    -1.953454824782
C      0.188881408087     5.084358018364    -2.741377432677
C     -0.073099490235     3.808202656620    -2.210985787917
H     -2.723685642802    -0.266086202869     1.307386865756
H     -1.105259739247     4.723485147574     0.915786203318
H     -0.640827764573     6.978162461399    -0.015712822363
H      0.188456783515     7.222331093309    -2.363200883453
H      0.543128102817     5.181863778741    -3.765048428303
H      0.085598430148     2.922654491861    -2.821521872612
C     -0.809376016474     2.275533345064    -0.322876468329
H     -1.601477837074     2.318573402721     0.439200665616
H     -1.154785951207     1.599917820798    -1.112481076019
C      0.392674225609     1.552972645805     0.319451166654
H      0.102280288463     0.514051622778     0.485673052736
C      0.993315959395     2.021760032363     1.598851633015
O      0.485568727940     3.002501525139     2.208420318665
O      1.666161181512     1.024739771596     2.346209181837
C      2.239742208223     1.473483352354     3.583144974494
H      2.780779636699     0.635742523208     4.072299136995
H      2.968772548712     2.296816670781     3.402005946837
H      1.449949596090     1.835046127998     4.281152302305
Pd     1.093358842438    -1.356806336605     1.180566548002
C     -2.126624185109    -1.518369841588    -1.121099890033
O     -0.851195627478    -1.018129991854    -1.239555314258
O     -2.932132943759    -1.447404726395    -2.056603796259
C     -2.437405259641    -2.120974934677     0.284689306126
H     -1.747490546079    -2.954076831043     0.467807793817
C     -3.858763056376    -2.615516428782     0.414178891501
H     -4.017106990067    -3.042764019641     1.426111423827
H     -4.560298807649    -1.767007003556     0.269854185660
H     -4.066706564750    -3.394852174406    -0.348195597043
N     -2.200878717617    -1.133919019117     1.342846975673
C     -1.198474636720    -1.278436447830     2.254136658922
O     -0.437936491569    -2.313475245897     2.322953967657
C     -1.169321655763    -0.289390215774     3.343162980230
H     -2.123315808040    -0.374382207651     3.893701090496
H     -0.323808469130    -0.504829814167     4.019244811489
H     -1.087210145915     0.726124605015     2.917054267826
N      2.442618864159    -0.560465519184    -0.209139050547
C      3.442084920255    -1.457538882356    -0.492270928310
C      4.304854545801    -1.235836985236    -1.543520842372
C      4.184755452483    -0.100504122923    -2.313915996552
C      3.194645218672     0.787021882057    -1.998810100398
C      2.330488005221     0.520919848830    -0.913795552749
H      3.544972206044    -2.355099022876     0.106283823508
H      5.081122257225    -1.951192588620    -1.761705953402
H      4.860694803188     0.089291762507    -3.143516640687
H      3.044450742646     1.701482760922    -2.540485556606
O      1.442259245850     1.512709577162    -0.732245262704
H     -0.217865217283    -1.215340660292    -0.456011285639

