# STO-3G

title

0 1
C     -0.513001324106     1.552162893641    -2.256296882884
C     -1.133947870536     2.748586051893    -2.668371387784
C     -1.525585289574     2.907294105204    -4.014178443532
C     -1.313998913992     1.873501744530    -4.946381108596
C     -0.703964975256     0.676098198134    -4.527818937986
C     -0.297044645370     0.512618480061    -3.186829512570
H     -2.230265386993     0.982896852743     3.114781210363
H     -1.325384012729     3.547174939781    -1.959890624777
H     -2.004628756728     3.833359963769    -4.325512984718
H     -1.625517491269     1.996661302558    -5.981015510219
H     -0.542480614074    -0.133340302347    -5.237207177538
H      0.174857436183    -0.419109609638    -2.884683867330
C      1.500700695530     1.507276296513     2.144206315966
H      2.139486024517     0.643579122759     1.980141657407
H      1.492232556203     2.261555829116     1.356126177197
C      0.811766581643     1.701818471285     3.295079775402
H      0.181327860603     2.572134349849     3.415931153732
C      0.847087742150     0.791970852781     4.452412804500
O      0.376073972590     1.196410298997     5.549525199114
O      1.640747239695    -0.369714508817     4.391803441509
C      1.557641610421    -1.236612371270     5.530526762105
H      2.198399284518    -2.127816071617     5.360969931186
H      1.912929067791    -0.718721970584     6.449937550169
H      0.510218454032    -1.584755062138     5.681405268058
Pd     0.094699464130     1.379774371661    -0.364489534649
C     -1.484088095398    -0.334820597939     1.878133847003
O     -0.508074259090    -1.075557887689     1.605954466131
O     -1.726420065614     0.067630876149     3.140010993227
C     -2.379838181373     0.353007863105     0.811706661436
H     -3.377481250507     0.521641930152     1.240090399928
C     -2.508828627985    -0.430973296674    -0.469785881398
H     -3.046290129307     0.178108739406    -1.226855542393
H     -1.511573439446    -0.703159845014    -0.862841738285
H     -3.082781444075    -1.361997859083    -0.282644649911
N     -1.741672799670     1.661628983530     0.503685617503
C     -1.951417672229     2.607575996673     1.426915450534
O     -2.502639199577     2.412688380561     2.575356991425
C     -1.497404315578     3.963181467790     1.083840043004
H     -2.082140987535     4.300968565999     0.212715274107
H     -1.698785750519     4.623200124284     1.947663320783
H     -0.418681720417     3.939474499758     0.865110856511
N      1.923468039359     0.654097938748    -0.976578898545
C      2.692114423239     1.364420679410    -1.861866473486
C      3.898939756928     0.856201241973    -2.290698692515
C      4.342064452826    -0.367307892741    -1.840876336409
C      3.551196358917    -1.060402317807    -0.963599822075
C      2.320572713022    -0.512471410597    -0.545581419376
H      2.352213254060     2.329357035121    -2.220405625636
H      4.497490381650     1.422283609207    -2.986298810166
H      5.293266270145    -0.773683446805    -2.175071459103
H      3.839084498953    -2.019407256957    -0.577872780814
O      1.667354710001    -1.294173183857     0.286717954489
H      0.762850912277    -1.088124061596     0.713426675342

