# STO-3G

title

0 1
C     -0.460263474058     1.533768085669    -1.669812895619
C     -1.143149173009     2.763066196651    -1.804002723606
C     -1.880695843580     3.045660004343    -2.972789225221
C     -1.961094315668     2.101726756528    -4.014030117070
C     -1.296114436212     0.868440366084    -3.878840328822
C     -0.546894006614     0.586009811125    -2.717695511884
H     -1.782289998781    -2.802910984030     1.988197031327
H     -1.127138637601     3.496453853529    -1.004996488100
H     -2.400487239797     3.997997788335    -3.058285033891
H     -2.537360020257     2.319840478713    -4.910395100369
H     -1.357474306618     0.123868829994    -4.670835688258
H     -0.043997240188    -0.375837043013    -2.640525400594
C      2.671801558501     1.029094198681     1.763009352117
H      2.770120251207     2.099942984705     1.917852660697
H      3.314404206126     0.585073531792     1.011396581366
C      1.853169873812     0.250578021215     2.521358383097
H      1.792423166962    -0.812661741635     2.341636439416
C      1.022101875545     0.747851495127     3.629731374868
O      1.132741019256     1.947969711665     4.002360254152
O      0.119829011137    -0.131850628955     4.249476287471
C     -0.736219781103     0.445590208348     5.245364639965
H     -1.414578577988    -0.338314724015     5.645784743291
H     -0.140107778983     0.857593649531     6.090449848879
H     -1.365820701661     1.254729551244     4.808911190353
Pd     0.627385318763     1.127840157979    -0.035605383020
C     -1.342802757574    -0.990152960458     1.457535886053
O     -0.228606336395    -1.376761587893     1.043896524469
O     -2.199987341362    -1.911114713322     2.011471105231
C     -1.930399572072     0.417378527341     1.445736431722
H     -2.398711062705     0.584784546656     2.427935936457
C     -3.029050164623     0.542878098315     0.402714542751
H     -3.437120255788     1.574901840707     0.409416419708
H     -2.630659733159     0.322346558155    -0.606125778752
H     -3.854013244929    -0.164691971310     0.629254499247
N     -0.927046103980     1.461911620751     1.213050664922
C     -1.129732840291     2.613381159795     1.897451515949
O     -2.057700783935     2.823573151836     2.734827825530
C     -0.163768194501     3.700508900140     1.637272578563
H     -0.735484456499     4.573104788676     1.279455831419
H      0.314771291759     3.944689140944     2.602256501585
H      0.594245546803     3.394445135976     0.901226711307
N      2.177498928275     0.500838027337    -1.269441328008
C      2.774377532723     1.338703653400    -2.174431871541
C      3.799253122801     0.871072660280    -2.971139838538
C      4.221426187983    -0.437956806403    -2.873306843626
C      3.593917366998    -1.256130097010    -1.970068636466
C      2.546800275537    -0.740192899296    -1.182674202685
H      2.449286571605     2.369836270601    -2.253585372537
H      4.267591684196     1.535918901519    -3.679164168047
H      5.026697113676    -0.812828354439    -3.499908273085
H      3.863515874550    -2.287501419471    -1.850584606867
O      1.996868293707    -1.624663500603    -0.359076880514
H      1.163381159635    -1.355020699101     0.133734074580

