# STO-3G

title

0 1
C     -0.837274171533     1.833189122185    -1.150653204583
C     -1.503315980188     3.031685570178    -0.819760507515
C     -1.935399675727     3.904339203185    -1.839671102273
C     -1.715555167851     3.583342090020    -3.193044207073
C     -1.050113365258     2.387596607901    -3.521949347984
C     -0.603264728339     1.515456693233    -2.506345435249
H     -2.479289985051    -1.858557098449     2.750084547491
H     -1.686386108845     3.294193222648     0.217979099319
H     -2.448794374608     4.825802923563    -1.572688973930
H     -2.059245000221     4.253042421706    -3.977838898688
H     -0.874831996093     2.127654583736    -4.564161882202
H     -0.078960914873     0.604630426548    -2.786303526374
C      0.598144396379    -0.489367850371     2.849919681518
H     -0.190831701846     0.087884928598     3.321224104187
H      0.430683511485    -1.558208815099     2.788074059467
C      1.762854845652     0.062425060060     2.418305558589
H      2.536569217027    -0.571664410042     2.007024126765
C      2.080595621132     1.495273049808     2.468965431839
O      1.132684358441     2.327548628986     2.431061470054
O      3.406406985180     1.898939739137     2.240125107287
C      3.646077794228     3.313171547747     2.258292071948
H      4.726423856525     3.504058540226     2.079079429221
H      3.067199546307     3.826484725317     1.458051506726
H      3.376638792189     3.747483944585     3.247729875695
Pd    -0.159921927448     0.700440461991     0.350397140970
C     -1.437094129017    -2.203969051303     1.123538891773
O     -0.330495444404    -2.549545206673     0.634219903179
O     -1.788806196823    -2.559448341673     2.372897950008
C     -2.406364219240    -1.193233946755     0.459178880339
H     -3.433740500628    -1.444666503222     0.758265717492
C     -2.317154241050    -1.165962579359    -1.045205755090
H     -2.944744068145    -0.339423205889    -1.440389763357
H     -1.270862306440    -1.016253986470    -1.367912776766
H     -2.683754362737    -2.127442374263    -1.460340377517
N     -2.062249839773     0.158469283342     0.978964388653
C     -2.534164031236     0.408759327594     2.204527920122
O     -3.057992491842    -0.472276696771     2.991467388565
C     -2.468675697503     1.804622244442     2.658938453823
H     -3.111338909489     2.401232114196     1.991012357098
H     -2.849651067224     1.854049374070     3.694590005642
H     -1.423777871149     2.151811720865     2.617832153887
N      1.712548121892     0.655601309684    -0.543058785100
C      2.318608772593     1.824138484361    -0.926443549521
C      3.513714443029     1.789604105750    -1.612375702456
C      4.110596399195     0.586725579448    -1.915183683387
C      3.480915919293    -0.566144332087    -1.527291907668
C      2.254103853892    -0.494382432088    -0.834442302981
H      1.860467041170     2.775968125841    -0.683252123192
H      3.983079819700     2.713514725432    -1.907703820795
H      5.055737965662     0.552625220256    -2.450712183472
H      3.894033966214    -1.533991199475    -1.734412747602
O      1.768353885373    -1.678772062813    -0.527898080966
H      0.867248810769    -1.860622996311    -0.082389467979

