# STO-3G

title

0 1
C     -0.718638463834     1.699869692526    -1.283550934496
C     -1.489076485953     2.845378813880    -0.992615177148
C     -1.970814804139     3.658680588217    -2.039056049355
C     -1.701159053047     3.328530108798    -3.381086742562
C     -0.939761963681     2.181191673824    -3.671685397039
C     -0.442794708949     1.370608835961    -2.629123301325
H     -2.165018256192    -1.860871798158     2.794594485071
H     -1.722685813038     3.108864641299     0.033638130897
H     -2.563563826848     4.540030135950    -1.802540192601
H     -2.082054708465     3.952047549562    -4.186595787021
H     -0.728311780228     1.911452634455    -4.704764806958
H      0.150430380363     0.494401304850    -2.880652874824
C      0.898929538628    -0.416256871419     2.711984554118
H      0.131528751569     0.046200647623     3.324796174796
H      0.777790318717    -1.476815373198     2.521914408341
C      1.999210669897     0.246421966363     2.264209989964
H      2.748009065439    -0.288658865826     1.695682578213
C      2.301012294780     1.660831213516     2.531188526616
O      3.344754539104     2.161589717331     2.037264707363
O      1.312023793450     2.476883959487     3.110275452638
C      1.668786207367     3.853111733428     3.303821538245
H      0.822169521677     4.390737181059     3.783187501838
H      2.556177646711     3.941396634360     3.971535633784
H      1.889216562322     4.347743614422     2.330546245531
Pd     0.031381026034     0.661311014485     0.254452057268
C     -1.209035148373    -2.227261531289     1.120543946089
O     -0.126760825974    -2.574836447965     0.579765579720
O     -1.490286537608    -2.563043323207     2.392215709475
C     -2.215029164407    -1.229178775620     0.493868479735
H     -3.223567193575    -1.476283005389     0.854259902242
C     -2.211359487868    -1.226507645379    -1.013553470322
H     -2.859911774685    -0.405748527555    -1.386243541912
H     -1.185761416732    -1.084658419925    -1.400473224738
H     -2.602361283660    -2.193845300866    -1.391180611502
N     -1.844126051676     0.131899837362     0.975268419238
C     -2.256257002716     0.395165594329     2.220232301034
O     -2.737011105055    -0.475404303122     3.044404531969
C     -2.169571725173     1.796353065119     2.653802540627
H     -2.873737443436     2.378357941108     2.037238351081
H     -2.463798168234     1.851551204711     3.717365228223
H     -1.136384148886     2.152066024048     2.522646538396
N      1.865429431967     0.617050302128    -0.697573460811
C      2.491862523910     1.782867562984    -1.056762585563
C      3.655840512116     1.742312778712    -1.793960559621
C      4.209358006061     0.537097451312    -2.161387051432
C      3.566733256576    -0.613022258824    -1.786703414087
C      2.372214047355    -0.534946241400    -1.040731948295
H      2.068505156809     2.736492795198    -0.762728050911
H      4.142327127906     2.664549986910    -2.066591721962
H      5.133150986878     0.499230719387    -2.732709444125
H      3.949336298512    -1.582677499306    -2.038738342101
O      1.870984417585    -1.716958705579    -0.749971607929
H      1.003219732237    -1.896138844775    -0.240268051514

