# STO-3G

title

0 1
C     -0.455665797696     1.380015784643    -1.626205909261
C     -1.155114550555     2.587885475220    -1.840689242033
C     -1.816894149648     2.825199292540    -3.064266002703
C     -1.801852520685     1.857427423142    -4.085730220703
C     -1.113172520558     0.647995774398    -3.875908310982
C     -0.440669161723     0.411905285063    -2.659106455682
H     -1.328944785583    -3.292187917113     1.814453984568
H     -1.207245695290     3.347695925255    -1.069388310222
H     -2.351487442385     3.762144627217    -3.208495281205
H     -2.319353295735     2.039787282108    -5.024851977243
H     -1.093806209732    -0.113578906446    -4.653684301012
H      0.081761625401    -0.534196224034    -2.532966329668
C      1.950455049694    -0.250153484601     2.020884777446
H      1.258881349301    -0.936403102396     2.498734726535
H      2.587635483904    -0.683455027030     1.258998643272
C      2.078583188250     1.049009221131     2.403562501165
H      2.801272238265     1.690618136333     1.919343665317
C      1.352673011486     1.645261363095     3.535202029622
O      1.537307892603     2.864105265529     3.792610896088
O      0.419143121614     0.876161847610     4.250933397824
C     -0.313083364585     1.558382958454     5.278583463328
H     -1.013318879127     0.844479233849     5.764126710302
H      0.373723434484     1.959303486144     6.057562003603
H     -0.920798435439     2.387939176096     4.852555801657
Pd     0.530006129777     1.006001108662     0.087105866732
C     -1.253820914491    -1.455938705170     1.186992176771
O     -0.218754352467    -1.718216650483     0.538261514977
O     -1.839344880191    -2.456608347676     1.925733420120
C     -2.026252450053    -0.144383590940     1.285260404048
H     -2.538677444152    -0.138877498725     2.256416748841
C     -3.097388025173    -0.075946422259     0.207142919708
H     -3.688068288498     0.856549995984     0.321430992097
H     -2.631209383351    -0.079619723393    -0.797364638360
H     -3.786294954652    -0.942109140293     0.295314716119
N     -1.170267344757     1.049176743251     1.180576530667
C     -1.626317376525     2.126252682596     1.863867235571
O     -2.639099602656     2.154209254042     2.624328232663
C     -0.863179792683     3.379221555252     1.688830339330
H     -1.538251578671     4.111238156323     1.215039108429
H     -0.590469772173     3.746691893335     2.692521190299
H      0.040898995688     3.217751917550     1.082090446904
N      2.258550619633     0.734609665921    -1.031997915294
C      2.949464196106     1.799797328901    -1.545390233136
C      4.048328099957     1.583840390824    -2.351235687063
C      4.451559096293     0.301201847789    -2.656249468094
C      3.730041122210    -0.744980566738    -2.142830633393
C      2.610579596007    -0.478736766464    -1.331186518667
H      2.639835614329     2.810469319955    -1.305523262825
H      4.590966226271     2.426828285159    -2.747958505449
H      5.314865859784     0.124281186841    -3.292587441855
H      3.979621827619    -1.766825510131    -2.352175340384
O      1.970756033462    -1.565280995165    -0.916992437002
H      1.127894853287    -1.447502639425    -0.379490709936

