# STO-3G

title

0 1
C     -0.511866115997     1.822027292603    -1.358928582276
C     -1.108029628501     3.066615440059    -1.064816711550
C     -1.483395790082     3.936982970906    -2.108992489627
C     -1.282938098379     3.567509572669    -3.452793825079
C     -0.697876426543     2.321910325754    -3.747122604140
C     -0.306054579009     1.453117041852    -2.706785144285
H     -2.228799424467    -1.407657718394     2.790412396252
H     -1.291668499865     3.363670649531    -0.037863184410
H     -1.940635361544     4.894683626012    -1.868761898523
H     -1.581672776093     4.236465049691    -4.256451806469
H     -0.541799862218     2.020394614783    -4.781191482414
H      0.150410523732     0.499746253905    -2.962104676850
C      1.445321348046    -0.917987269690     1.980904469838
H      2.372790344560    -0.858057645302     1.419850747028
H      0.908540326267    -1.858157806506     1.927606086221
C      1.002132304314     0.095572689893     2.776144505111
H      0.101741417751    -0.041832189521     3.358083338938
C      1.705147050746     1.371207095662     2.983707694870
O      2.515242216936     1.775341404366     2.106910396806
O      1.214465586714     2.246572298958     3.966874052768
C      1.889826559642     3.507256220845     4.080837026482
H      1.427846262699     4.099257179292     4.900611162179
H      2.966277753338     3.359070518874     4.325713418841
H      1.801430734010     4.092935341507     3.137813570670
Pd     0.084798217775     0.673186323326     0.173097377691
C     -1.545750151589    -1.935233510141     1.018779734872
O     -0.639024478363    -2.490098477677     0.345709895044
O     -1.685381867937    -2.184597660999     2.334766543387
C     -2.448373374815    -0.789987251148     0.495896838751
H     -3.443926427498    -0.897034395038     0.950568477298
C     -2.586953160782    -0.760145402745    -1.005291595838
H     -3.140843790197     0.152631067690    -1.310401524448
H     -1.592599309985    -0.756495080719    -1.488102432675
H     -3.146330167620    -1.654537342890    -1.349190332083
N     -1.846936489007     0.499493497302     0.939430931788
C     -2.133408508374     0.829229288251     2.204013085550
O     -2.634825321141     0.029828290601     3.085589519505
C     -1.872539103240     2.223658234763     2.587994432288
H     -2.586273009673     2.856398324721     2.034928616348
H     -2.037263366378     2.324539879625     3.676092222638
H     -0.836446929002     2.486550130542     2.329317834055
N      1.860150979839     0.330076845427    -0.821163067690
C      2.710077605796     1.379515532203    -1.053945699160
C      3.848273060903     1.188824904338    -1.809261017992
C      4.145557127948    -0.052740951764    -2.324458669045
C      3.281873068279    -1.085374919281    -2.069580739079
C      2.126056777828    -0.853608739762    -1.294887340960
H      2.481254749563     2.359940078655    -0.652142042469
H      4.509542522126     2.020591892794    -1.988719133545
H      5.043203140352    -0.209789882799    -2.916696249483
H      3.459308819048    -2.076445704162    -2.438631253419
O      1.391015003863    -1.934987137753    -1.129911370363
H      0.546067103515    -1.983002342314    -0.562606266008

