# STO-3G

title

0 1
C      0.495167471846     2.933580601902    -0.570724257617
C      1.782827646403     2.994375893998    -1.154329836008
C      1.933391267633     3.351967796244    -2.505736885569
C      0.794739462621     3.642997100868    -3.292249940945
C     -0.488971753038     3.578868068567    -2.720412090920
C     -0.642738975204     3.236475949114    -1.356409785563
H      0.367642081779     2.725092797192     0.487399507349
H      2.660412815685     2.776584076027    -0.549040939977
H      2.928021032483     3.418963666193    -2.942714598188
H      0.914607049673     3.933925668511    -4.333863787658
H     -1.365985335740     3.821920304604    -3.316168816574
H     -1.615417489587     3.269412602979    -0.874218513374
C      1.995359924794     1.112061154270     1.981850124988
H      2.336109300423     2.143913063843     2.003669399715
H      2.501182343335     0.448488890609     1.284859632557
C      0.972739400884     0.660412194988     2.740949528873
H      0.659747400125    -0.373096325801     2.667216940967
C      0.193655169389     1.486033435828     3.674400321519
O     -0.856241999497     0.996823172314     4.173481394579
O      0.556085400695     2.827624344097     3.892509990361
C     -0.381226027150     3.615376129841     4.638650805636
H      0.011082597192     4.649269257084     4.745201601179
H     -1.357900287056     3.671398726605     4.105513880574
H     -0.534079483562     3.192340526354     5.657139466978
Pd    -0.723302017320     0.561611300515    -0.655392823865
C      2.941905460838    -2.936637141609     1.941123306280
O      2.203107257330    -2.383546486818     2.695996233223
O      3.699690204312    -3.495481185555     1.207109000737
C     -2.102396142489    -0.638241941532     0.471385267601
H     -1.767186668006    -1.189086229741     1.355939181152
C     -2.849189171046    -1.418764139614    -0.559844262955
H     -3.793547613188    -1.792162037286    -0.113855828193
H     -3.099435970493    -0.771385814566    -1.425590114057
H     -2.235326295859    -2.278188015758    -0.898062625334
N     -2.406785855328     0.697950471542     0.495539731027
C     -2.559526480255     1.581886134795     1.517069218387
O     -1.987924024475     2.701704410869     1.583772300039
C     -3.574287454614     1.217519096029     2.527744297170
H     -4.531224056608     1.044301569703     2.007767297853
H     -3.232292640841     0.309760189007     3.051877596588
H     -3.670284156302     2.047635056619     3.251050662828
N      0.874024699474    -0.257143830988    -1.790818988168
C      1.139518930969     0.097978789895    -3.087941517328
C      2.206617670582    -0.474198490567    -3.752614282854
C      3.012979997042    -1.399340745463    -3.119379759663
C      2.718790118398    -1.732463207929    -1.822978851660
C      1.621771329903    -1.121968601463    -1.194179003871
H      0.505693024008     0.816385849500    -3.593155503955
H      2.412232432233    -0.191406990170    -4.772450414712
H      3.857562707573    -1.851395971883    -3.633310482696
H      3.304016127670    -2.441038710197    -1.261872085889
O      1.414174674710    -1.490137270453     0.078485321284
H      0.607428761263    -1.003085492629     0.424322761141

