# STO-3G

title

0 1
C     -0.097902423645     3.119875634146    -1.515179584532
C      1.227101483952     3.436581207280    -1.899290189381
C      1.611181030791     3.365362382092    -3.249779116184
C      0.673296828555     2.975154229701    -4.233225857692
C     -0.644423247794     2.652734884958    -3.859736335795
C     -1.035312904842     2.731068077354    -2.502833875554
H     -0.442593910155     3.246947977661    -0.493431159208
H      1.946558275315     3.754562703834    -1.147079541316
H      2.626643505598     3.628059552646    -3.539982615456
H      0.967853941012     2.941106230597    -5.280151272140
H     -1.373681032892     2.369261785191    -4.615183496738
H     -2.067199992636     2.557387957368    -2.210231988464
C      0.725645776599     2.292101044908     1.786320629428
H     -0.328712209562     2.507564482423     1.645074785147
H      1.367447120156     2.470036200828     0.926297710310
C      1.255299246028     1.855432428943     2.952529060700
H      2.321442458344     1.684723727035     3.031137105545
C      0.481100209948     1.586420411507     4.174799960621
O      1.094537911119     1.461417000489     5.268013680166
O     -0.928086953299     1.612921948006     4.126499958246
C     -1.594662543759     1.367425006356     5.372949802455
H     -2.693938631716     1.414640645597     5.222709150189
H     -1.335923109263     0.356946634826     5.764682878812
H     -1.315556223476     2.137007351767     6.128360524067
Pd    -0.431819628064     0.588956128900    -0.874701132135
C      2.067660340242    -1.837372561283     3.141727958198
O      1.024639380182    -1.255913486252     3.113281345875
O      3.104525293844    -2.424219706333     3.184756984421
C     -1.569642026888    -0.659088993002     0.410466782575
H     -1.146056255152    -0.903336253096     1.388713551008
C     -2.061048529053    -1.804782540949    -0.414817519659
H     -2.779869852546    -2.399120458367     0.185118282051
H     -2.578352194675    -1.434307747588    -1.324250856091
H     -1.205378843570    -2.447083444898    -0.705655505800
N     -2.211751190445     0.526831685113     0.146423279525
C     -2.669487343404     1.528482942071     0.934584914387
O     -2.450831708541     2.756028094821     0.740846590588
C     -3.572734618531     1.115222082068     2.028328534666
H     -4.421648960716     0.570260693260     1.582404994697
H     -3.004417568253     0.470279887567     2.718714596983
H     -3.926387054267     2.018096105459     2.558872903415
N      1.476856183031    -0.024058961806    -1.572193990563
C      1.797637211590    -0.073814127047    -2.903889262802
C      3.051063824436    -0.501460269071    -3.294623581358
C      3.987395770389    -0.880438172722    -2.354053024522
C      3.636789248864    -0.815815792787    -1.030760906407
C      2.349522609098    -0.370168928019    -0.684949908206
H      1.063116178284     0.207275393253    -3.648436670409
H      3.296926431296    -0.541797644438    -4.343606432480
H      4.974919276288    -1.222325062164    -2.653547034108
H      4.308974022452    -1.100637837124    -0.242126965578
O      2.104682212482    -0.329921457597     0.630547006399
H      1.193511388782     0.039317181001     0.807235485193

