# STO-3G

title

0 1
C     -0.010616523672     3.144533388309    -1.534451080647
C      1.334725903140     3.311772417114    -1.938832747754
C      1.704206860637     3.097086018177    -3.278166192587
C      0.731119586656     2.713617032095    -4.229546307560
C     -0.608858397723     2.543582498448    -3.835438866284
C     -0.984914989207     2.764729558844    -2.489710761918
H     -0.338618636121     3.375894137789    -0.526084628566
H      2.085081133969     3.619161063385    -1.213042273848
H      2.738179359698     3.240875010239    -3.585856286975
H      1.017639532579     2.568967597299    -5.269224249994
H     -1.364807356501     2.269526246897    -4.567755946015
H     -2.026553104500     2.716238514163    -2.184825503165
C      0.709656585696     2.515077802034     1.877298647775
H     -0.267095586796     2.196298716821     1.528197993203
H      1.308771390171     3.057743095750     1.150439441141
C      1.160457989659     2.306882384753     3.134337644937
H      2.122103834970     2.696065889076     3.438546304979
C      0.426524837654     1.570996758402     4.175038895742
O      0.737073880297     1.752523006871     5.382478363524
O     -0.729488310089     0.839833168881     3.822320863678
C     -1.303942896761     0.063575937944     4.884215118792
H     -2.181487464387    -0.501484138980     4.506423134572
H     -0.562464122819    -0.670375435240     5.277823812808
H     -1.643086331428     0.721556214701     5.716920951828
Pd    -0.585327836292     0.673968494925    -0.780842851628
C      3.394507585306    -0.988728318103     2.945657164548
O      2.463014502036    -0.474360463568     3.483733954826
O      4.340432617224    -1.505596019173     2.432469225613
C     -1.785779825754    -0.376735196594     0.631067807594
H     -1.396781423937    -0.524486744748     1.641814820603
C     -2.273052941049    -1.596415118315    -0.080336599649
H     -3.104434357600    -2.044736364603     0.500645287475
H     -2.649765406608    -1.329165803580    -1.089383452666
H     -1.447282680927    -2.330970694193    -0.171104050830
N     -2.378359844103     0.789079945966     0.211933674287
C     -2.792371499017     1.900395341482     0.874076086495
O     -2.488603063217     3.081039780772     0.555608797702
C     -3.756731417274     1.669331020462     1.969174181924
H     -4.616005094634     1.114887385441     1.555341989426
H     -3.251782428031     1.091062799512     2.758503638325
H     -4.085870032065     2.646736204242     2.367768521863
N      1.260356928934    -0.090851868880    -1.488876233196
C      1.467423381153    -0.346033938473    -2.819768086492
C      2.666636114306    -0.886357984924    -3.239394170917
C      3.664394359480    -1.168258509560    -2.328090716595
C      3.427788955550    -0.893900251413    -1.007040584741
C      2.191519452506    -0.340962096914    -0.632204212179
H      0.684659652763    -0.137058269321    -3.539013790690
H      2.823500937931    -1.088545135674    -4.286589254708
H      4.611321739315    -1.595827907049    -2.647799400281
H      4.155514742955    -1.089419826873    -0.238006857102
O      2.065282979973    -0.094237850065     0.677983230298
H      1.191094927554     0.341296759956     0.879246186058

