# STO-3G

title

0 1
C      0.353863327358     3.173367476266    -1.221469619465
C      1.667769079658     3.163951409300    -1.744019737411
C      1.877793585690     3.055914756488    -3.130244840450
C      0.774724143426     2.953972267605    -4.008238311936
C     -0.535141996856     2.965301796071    -3.494603629491
C     -0.751630772178     3.084191144217    -2.101496248156
H      0.167585850057     3.315356717864    -0.161609644944
H      2.521129555566     3.249232169597    -1.074027709776
H      2.890964183528     3.063429725067    -3.527438170106
H      0.940102311375     2.887071351304    -5.081509803463
H     -1.388029002893     2.910374147102    -4.167231795541
H     -1.753515561249     3.181314211926    -1.693619750857
C      1.669813606600     2.355764259525     2.178802969360
H      2.456704745325     2.280722372173     2.923230580244
H      1.950469044059     2.787148702739     1.221106746198
C      0.407816625775     1.920214987251     2.386253658956
H     -0.329652493924     2.010026640277     1.600653057184
C     -0.073919643311     1.295957519917     3.627398759487
O     -1.200617332182     0.726233569085     3.600197457996
O      0.618932017407     1.495627068034     4.833358520363
C      0.198231750230     0.677903561612     5.932606857644
H      0.828411315949     0.904879248405     6.818921113693
H     -0.863928758726     0.879975487810     6.197083174872
H      0.327983996512    -0.401393810852     5.687325678039
Pd    -0.742648122551     0.711803502490    -0.803066284016
C      3.025369635755    -1.455194277719     2.787157442360
O      2.108451850029    -0.918997741294     3.330262092943
O      3.957945469709    -1.998543967820     2.277294571265
C     -2.178548663197    -0.339812707430     0.401149037118
H     -1.922873420057    -0.661755687166     1.413503228751
C     -2.684324626315    -1.381279157612    -0.541380749596
H     -2.363696103265    -2.387315785958    -0.201265574359
H     -3.792359699929    -1.333680842329    -0.559589442046
H     -2.296742242553    -1.193560388838    -1.562743626489
N     -2.572767754045     0.936046890665     0.088345022553
C     -2.888599400781     1.994162317635     0.883877776679
O     -2.386251946559     3.144552230784     0.773193717007
C     -3.983593347494     1.766456768241     1.849492493766
H     -4.867762177252     1.420481739667     1.288476772328
H     -3.652258582995     1.007403827997     2.578070112400
H     -4.204220142477     2.716239082742     2.370113903978
N      1.017167769170    -0.176255759336    -1.586264071831
C      1.195934445963    -0.322523788659    -2.937361997744
C      2.331623248962    -0.943645212649    -3.418740479199
C      3.293924593543    -1.415521030882    -2.548379457649
C      3.087686628544    -1.245999938400    -1.204615332223
C      1.916283377325    -0.604725346633    -0.767806166183
H      0.441035959409     0.039641286798    -3.625215731274
H      2.466634063439    -1.058458172564    -4.482035171452
H      4.191014118994    -1.906257996864    -2.917183265289
H      3.791414609101    -1.585033798223    -0.463744492926
O      1.815843355634    -0.463612831904     0.559362321826
H      0.992845480247     0.043396236964     0.800323580345

