# STO-3G

title

0 1
C     -1.195469729624     3.803577013174    -0.364208983716
C     -1.735280795992     3.968820130004    -1.663676516662
C     -2.723199362667     4.934754551133    -1.921206821641
C     -3.188871593217     5.759890063099    -0.880387870793
C     -2.654555475037     5.612455650239     0.416944053737
C     -1.668904321850     4.647163922071     0.673081016716
H     -1.576599253895     1.214454481747     1.114432650215
H     -1.377927114358     3.331279161732    -2.470746518363
H     -3.125548738084     5.043996943027    -2.925370688174
H     -3.952630673666     6.508945239433    -1.074848531391
H     -3.006579475224     6.253395989275     1.221951329859
H     -1.261985560097     4.559651730849     1.677680161309
C     -0.176904211395     2.756418403872    -0.161236883072
H      1.607582599577     0.939696384630    -2.584594157389
H      0.113452519757     2.224300159789    -1.069572093847
C      0.381413418945     2.374996636359     1.019783436036
H      0.115035015669     2.846534807198     1.955545540926
C      1.362207524786     1.291465741690     1.142329218574
O      1.797502869779     0.718178566294     0.100840897503
O      1.813238162110     0.918709048477     2.420272584016
C      2.644683050839    -0.249199058308     2.475902759705
H      2.934456506258    -0.443245217587     3.531084674066
H      2.094937228642    -1.142984417461     2.101485778358
H      3.575146225069    -0.105941483785     1.880929731276
Pd     1.494260715579    -0.400465128902    -1.878882012719
C     -1.041555522186    -0.796432796435    -0.554332612280
O     -0.338314299656    -1.651197752011     0.180903001058
O     -0.602304449913    -0.214397174827    -1.605359113927
C     -2.397648031890    -0.452629030206     0.076230359898
H     -2.878913572768    -1.375452009365     0.418020202976
C     -3.322171422421     0.318426746857    -0.837358467665
H     -4.288070460786     0.488642103859    -0.318704686896
H     -2.873148503515     1.307293147017    -1.067278461709
H     -3.501639912845    -0.245236744235    -1.774933433268
N     -2.116420028617     0.364361451129     1.257121590406
C     -2.382756461881    -0.106880492479     2.508927737082
O     -2.947309789586    -1.191934523562     2.761590392752
C     -1.963126049861     0.781913439756     3.612082614167
H     -2.461920096144     1.754982562240     3.465906813476
H     -2.270096711527     0.323117824679     4.567410392457
H     -0.866090044259     0.889921391249     3.566310407134
N      3.441610179734    -0.978567314676    -1.684855738385
C      4.713932333230    -0.589121056043    -1.985015572006
C      5.780451203743    -1.270078481730    -1.431161120975
C      5.572492179293    -2.339183196073    -0.580451685840
C      4.282585614767    -2.705532155221    -0.287197865782
C      3.215545060412    -1.983408761293    -0.861828717944
H      4.883393709208     0.244312953269    -2.656768359100
H      6.785915062839    -0.963955818575    -1.671052605352
H      6.413163437819    -2.877126776876    -0.149966691812
H      4.050674506312    -3.522991977831     0.365576819661
O      1.995506747350    -2.331462268882    -0.559503452179
H      0.627678349351    -1.906452604315    -0.103889457070

