# STO-3G

title

0 1
C     -1.063735033948     3.603016923099    -0.070083625569
C     -1.749637892432     3.738650336647    -1.304807688979
C     -2.847098752468     4.608949775187    -1.436763435460
C     -3.277770773752     5.375256659583    -0.336448708557
C     -2.588757739411     5.273678737785     0.890538192977
C     -1.493019292683     4.403705886020     1.021388330808
H     -2.812433798514     1.804407403227     0.610706492615
H     -1.406767282030     3.163665843661    -2.163246244961
H     -3.354980073922     4.697299308698    -2.394104883165
H     -4.121061872254     6.053884511394    -0.436642378960
H     -2.895745791922     5.886501617386     1.735027869837
H     -0.944723429497     4.374519535676     1.959656546627
C      0.061344808248     2.650306711694     0.016028634799
H      1.711938514609     0.664703347932    -2.353380629926
H      0.426466818159     2.278910021895    -0.943359610196
C      0.624846258001     2.173890852788     1.156521456618
H      0.255952636023     2.457431906575     2.133721692826
C      1.725210488747     1.203724188838     1.176391166772
O      2.244732942709     0.823621371700     0.087690885058
O      2.160341836446     0.690805773733     2.410041841441
C      3.039449909897    -0.441115991946     2.338102125693
H      3.315138105382    -0.759298664464     3.366150351370
H      2.534493129279    -1.299844750484     1.837667458887
H      3.974520640108    -0.188532065852     1.788574023866
Pd     1.636988358547    -0.657535065033    -1.583050014527
C     -1.038822721890    -0.535048167537    -0.293574108660
O     -0.370183175698    -0.978293947479     0.779080610537
O     -0.456708033022    -0.345985974449    -1.388773631057
C     -2.541605258373    -0.233238759092    -0.059962956113
H     -2.993860609744    -1.142687354361     0.359510269914
C     -3.286601858655     0.153689634187    -1.315884980253
H     -4.356160162178     0.324000554556    -1.073892788500
H     -2.862853730915     1.094648605468    -1.720914917664
H     -3.206002813086    -0.649302299531    -2.076817775963
N     -2.705508299359     0.845434834503     0.930341672588
C     -2.521517802219     0.587961680209     2.242525282345
O     -2.036471390226    -0.495838129139     2.678481406371
C     -2.920873251963     1.640553037145     3.189431259770
H     -3.989659106496     1.855550299237     3.021851053408
H     -2.747451416236     1.280890894355     4.218216124222
H     -2.313783199235     2.536389585032     2.982193989894
N      3.582865998527    -1.168263812410    -1.684077279173
C      4.778312211531    -0.668600342048    -2.104155523517
C      5.943676728225    -1.333600540907    -1.775119518182
C      5.910055070791    -2.493586700753    -1.023579733380
C      4.695853560091    -2.970556451965    -0.597111282179
C      3.518271127314    -2.268211702184    -0.940585408786
H      4.810546720795     0.236672136597    -2.698986386338
H      6.888900518180    -0.941010641121    -2.112098530613
H      6.828967815878    -3.014674574762    -0.768635698612
H      4.597605492980    -3.855016378466    -0.001535825954
O      2.374648077203    -2.683955021818    -0.508972716400
H     -0.936410653296    -1.020744619048     1.624682592022

