# STO-3G

title

0 1
C     -0.161792543688     3.761601248620     0.011930183266
C     -0.093490470075     5.167458370416     0.178234535892
C     -0.982335733602     6.027139754977    -0.490719067045
C     -1.965201443914     5.498665822541    -1.348718438034
C     -2.038576730648     4.102312860395    -1.532876243036
C     -1.150560565684     3.242642563896    -0.865738089587
H     -2.972413276990     0.748887424877     0.354688848527
H      0.660369333748     5.585741006179     0.843816927875
H     -0.909075718052     7.102413911904    -0.342637666958
H     -2.653799097734     6.159285007892    -1.870382897078
H     -2.781680288939     3.684270687378    -2.209307423976
H     -1.208430961410     2.174110037331    -1.051673832703
C      0.784200369214     2.910697521287     0.775233228653
H      1.009358381334     0.161670926328    -1.520637732518
H      1.459035109781     3.463150024117     1.429617926389
C      0.620141913622     1.524004575279     1.001173656318
H     -0.223171797519     1.021303021179     0.564046576184
C      1.298258914328     0.767419752283     2.063144239834
O      2.380210376940     1.234938253546     2.510220589343
O      1.048880385044    -0.611167597381     2.125146292082
C      1.645304156433    -1.297087842919     3.233273072730
H      1.357793441502    -2.369883333963     3.196901122826
H      2.756246917242    -1.233324319583     3.193664119196
H      1.278242190047    -0.876530572940     4.197642837204
Pd     2.161680307435     1.783033169322    -0.527105383726
C     -1.274529360635    -1.059073904037    -0.280883478924
O     -1.342887265911    -0.135778971722    -1.121572134557
O     -0.392063494836    -2.087261033606    -0.385147806280
C     -2.131876304349    -1.065664520948     0.995093600221
H     -1.509846742819    -1.345064079509     1.850841225939
C     -3.304046617577    -2.017231528089     0.902547870534
H     -3.869830965052    -1.994370123560     1.856823429657
H     -3.977572663000    -1.690370547196     0.083593414854
H     -2.948693732076    -3.050558078897     0.711496986768
N     -2.646879353075     0.287056750072     1.197721150845
C     -2.328659018121     1.010656473593     2.311273850622
O     -1.634678182854     0.586523115221     3.263160407903
C     -2.820961373339     2.404547431482     2.354189365413
H     -3.405195839529     2.525233756381     3.280435743128
H     -1.937482055477     3.064681310266     2.361364684260
H     -3.446631110386     2.630405234978     1.472713852430
N      3.354214187571     0.378881706359    -1.607983413510
C      4.718656706003     0.405651228923    -1.732350545781
C      5.386105926488    -0.687482277058    -2.251850780215
C      4.688866567337    -1.809239648232    -2.653784245868
C      3.324179701448    -1.806712786730    -2.520905421020
C      2.696878984040    -0.665119322584    -1.987794483774
H      5.273024022758     1.282345608507    -1.417793401995
H      6.459918982533    -0.660153866272    -2.345081408398
H      5.207618984629    -2.670622669749    -3.066625286575
H      2.716301516707    -2.635937613427    -2.821957772503
O      1.355006026544    -0.728572851884    -1.882407868672
H      0.298831681852    -1.870340191734    -1.080322404712

