# STO-3G

title

0 1
C      0.021692919111     3.384702900653     0.152549076399
C      0.611685647923     4.603623988400     0.573092181008
C      0.370694469364     5.797800417584    -0.124479181129
C     -0.465948037367     5.805355108917    -1.259582942472
C     -1.059801769991     4.602732434989    -1.687358026083
C     -0.819834469310     3.407899964660    -0.987591700012
H     -3.166371609917     0.691747484214    -0.017236564575
H      1.259545067698     4.623562851465     1.445528908454
H      0.830975823284     6.723242492264     0.214725141952
H     -0.651380719199     6.731566024081    -1.798394660432
H     -1.706992717725     4.592317151588    -2.561182623697
H     -1.281533916098     2.486636230495    -1.337301790905
C      0.224822206195     2.098241044490     0.864965935955
H      1.376949788894    -0.748226647871    -0.190105021959
H     -0.464622470881     1.317667375107     0.555423697803
C      0.978386104731     1.924000909427     2.039430589874
H      1.463452442141     2.767363378683     2.504194544177
C      0.943442759545     0.706849217702     2.854482763287
O      1.244901543280    -0.353009069718     2.243710940491
O      1.227477668154     0.832568749478     4.221727463034
C      1.109698724163    -0.381192607459     4.977002597960
H      1.307386631589    -0.168826532733     6.049553828198
H      0.079562306333    -0.799946498462     4.890873864818
H      1.847400831144    -1.140752182744     4.632059131737
Pd     2.115984234148     1.095010654036     0.286176882765
C     -1.722787705705    -0.500712049223    -1.488888941945
O     -2.504954811410     0.331349358255    -1.976239129081
O     -0.798249427320    -1.145627438514    -2.247341836519
C     -1.792552856691    -0.869238826940     0.020511601772
H     -0.794147132432    -0.876488244871     0.475903855059
C     -2.420770736282    -2.230582655480     0.237073566948
H     -2.429891681933    -2.466039626772     1.321822698753
H     -3.468137704464    -2.212304927582    -0.130499207031
H     -1.846719808561    -3.014529990447    -0.297917922796
N     -2.632417529751     0.143460749151     0.652795229999
C     -2.569274306049     0.437342420210     1.975338972570
O     -1.809334520315    -0.127357409372     2.798361411114
C     -3.434104775287     1.538967055349     2.449014512901
H     -4.068212877068     1.140859386574     3.257772200878
H     -2.772635285952     2.335257242516     2.828382859301
H     -4.061792070779     1.927953095173     1.627458439223
N      3.114834393156     0.149091115912    -1.358514315560
C      4.167527340690     0.619731604986    -2.098037568065
C      4.594349894500    -0.080605527663    -3.210727968318
C      3.966913013253    -1.252250831412    -3.586788925139
C      2.918093941941    -1.700760355586    -2.824767703953
C      2.532154424064    -0.950929751330    -1.699250146881
H      4.660102174362     1.542109480740    -1.812586725468
H      5.420314039232     0.296757305959    -3.792145567873
H      4.295457508031    -1.804338659769    -4.463665005780
H      2.386244499111    -2.602053386710    -3.055356767039
O      1.483556774471    -1.421092185607    -0.994309306291
H      0.006654603159    -1.473732643705    -1.741749579095

