# STO-3G

title

0 1
C      0.201437222322     3.114145647085    -0.126327876233
C      1.540727051016     3.532293850112    -0.294162011732
C      1.845691714474     4.904994666432    -0.402074830683
C      0.819505968049     5.868234513210    -0.345058904942
C     -0.514683687477     5.452018299200    -0.175210816016
C     -0.826079470198     4.079862479560    -0.063792091578
H      0.173119534420    -1.227494833352    -0.768218616961
H      2.346415440077     2.800423292342    -0.333121807034
H      2.881854437798     5.214954458644    -0.525276058639
H      1.056573463323     6.926393527997    -0.427929229167
H     -1.314142843354     6.188749730938    -0.124830934546
H     -1.863767217300     3.779886223977     0.070291264493
C     -1.199933798439     1.198164811217     1.984313224371
H     -1.781611360719     2.102861118931     2.128475957065
H     -1.756168853659     0.270893421468     1.893817958881
C      0.177732325390     1.156268958844     2.218037260380
H      0.698742038840     0.206202434706     2.210671979335
C      0.956345717469     2.295009683908     2.739437365324
O      2.205133665945     2.185329239190     2.848595563167
O      0.294122521511     3.493019515699     3.065854081523
C      1.137577813420     4.594527999307     3.428641605346
H      0.508141493367     5.482067213885     3.652004337379
H      1.737942145884     4.352677517870     4.334823494258
H      1.821401193398     4.858888277004     2.590424681183
Pd    -0.260897832395     1.173270697831    -0.052139648124
C      0.742731832773    -2.584640137468     1.489080404627
O      1.456352975135    -1.708881330594     2.011755767019
O      1.076422279816    -3.208279812421     0.306837772585
C     -0.617750669910    -3.052219771122     2.054464354799
H     -0.703009280157    -2.591600465356     3.048394514737
C     -0.698628735167    -4.553171169049     2.219348258666
H     -1.644605970333    -4.818743396150     2.735459703792
H     -0.698235740916    -5.030267814470     1.217443464517
H      0.160067805864    -4.926511096289     2.814208536980
N     -1.796834753854    -2.663335414447     1.265057301748
C     -1.781461479776    -1.739256762922     0.378671947023
O     -0.720357202850    -0.959737572646     0.018898388933
C     -3.041181754453    -1.464593891628    -0.326352840745
H     -3.818595928974    -2.165096151989     0.032003310009
H     -3.334304124519    -0.424474025163    -0.122112022699
H     -2.860315414673    -1.619480030203    -1.404299696784
N      0.428461129207     0.935790009463    -2.055072087828
C      0.435659151224     1.958817530962    -2.968427475410
C      1.145831736129     1.837720652451    -4.145622436210
C      1.848839106360     0.687766855118    -4.425067901130
C      1.806526685699    -0.335552376053    -3.518230811197
C      1.059502409868    -0.184965058788    -2.327419131615
H     -0.117613179360     2.869163350611    -2.773186870603
H      1.150449912625     2.655003607850    -4.847584635882
H      2.411303820816     0.589226525072    -5.349588572500
H      2.307151534541    -1.267456602177    -3.683532449156
O      1.040518679804    -1.235205860220    -1.546332514892
H      1.705014090774    -2.667972884084    -0.232679494917

