# STO-3G

title

0 1
C      1.493402604978     3.939346789115     0.218194891237
C      2.865676472893     3.819128017522    -0.115607193976
C      3.527777858047     4.816271700058    -0.850702394192
C      2.830859702837     5.967443692491    -1.265504453601
C      1.468730549497     6.108264572546    -0.929358309820
C      0.808578890777     5.110719381687    -0.194350676484
H     -0.558359742598    -0.275623437804     0.653643907146
H      3.414107200791     2.931341217404     0.198109306744
H      4.580727994464     4.698395179921    -1.096459826186
H      3.339937616792     6.743390634597    -1.832087937263
H      0.926457074715     7.000640648690    -1.234110002691
H     -0.237425783532     5.249237698602     0.065778346523
C      0.852340309973     2.857124056306     1.005381799879
H      1.408547844285    -0.215032545440    -0.455887013014
H      1.561902701189     2.200572853975     1.511166068305
C     -0.506337124714     2.787846568034     1.381180659877
H     -1.199672897036     3.539276004333     1.028123954662
C     -1.002362721130     2.043200893679     2.551587679260
O     -2.236144316446     2.073819480926     2.797497763314
O     -0.107829459735     1.314465824642     3.353410399933
C     -0.689865339026     0.608871632146     4.459779863184
H      0.107352485595     0.062900346400     5.010544918734
H     -1.180327956999     1.314718693404     5.167440739223
H     -1.437019555581    -0.139028629216     4.107558456389
Pd    -0.186743114381     1.622968473892    -0.465012034110
C      1.187515642665    -1.366176132670     2.363854729621
O      1.647983724449    -0.371149113972     1.486616216685
O      1.801697203410    -1.650034143717     3.395222686042
C     -0.107971139999    -2.007462043664     1.868406027539
H     -0.632328657502    -2.404587538267     2.743571681910
C      0.165170538018    -3.157151169186     0.918757880152
H     -0.792893544475    -3.641730265093     0.638060844493
H      0.650855132371    -2.770932734465    -0.000631899488
H      0.823047092399    -3.909849411778     1.400318330068
N     -0.980930545036    -1.044603081542     1.196092171335
C     -2.326801578198    -1.129652759731     1.381169099106
O     -2.882899571461    -1.962620196509     2.137281767126
C     -3.171695209891    -0.189646360877     0.612924494138
H     -3.891567652492    -0.797473524123     0.038946385396
H     -3.710485438614     0.437309292980     1.344655499683
H     -2.570129085037     0.426307655097    -0.071130841104
N     -0.153044945838     0.451476049583    -2.224083857056
C     -0.969492059193     0.683783337521    -3.299253635337
C     -0.816856240442    -0.052793475739    -4.457140284299
C      0.155928993193    -1.027310898044    -4.543135619307
C      0.958961864764    -1.238752136057    -3.453769791149
C      0.762723071352    -0.462449082946    -2.294026133586
H     -1.736156355689     1.447452428005    -3.239365726577
H     -1.463706353468     0.135774284299    -5.298526231325
H      0.282141421954    -1.612095938055    -5.450502939610
H      1.734318598323    -1.978317209449    -3.443725457253
O      1.591036018246    -0.747644173605    -1.287348214765
H      2.422421069643     0.098407574516     1.864854873609

