# STO-3G

title

0 1
C      0.267042123573     3.873837143069     0.985998939449
C      1.046556817074     4.816361146494     0.268140944756
C      0.464123259881     5.962532258532    -0.297092149059
C     -0.916502550625     6.198824038568    -0.144928204809
C     -1.700013317990     5.276254133400     0.577424861730
C     -1.119300937008     4.126277177674     1.138962060492
H     -2.125603335120    -0.495768544355    -1.415908698029
H      2.115402211002     4.640977176231     0.151273175729
H      1.082155006199     6.670230922241    -0.845183566296
H     -1.370809468474     7.090003087085    -0.572145842076
H     -2.764450775627     5.456650185601     0.711709713540
H     -1.745379815126     3.426176077377     1.682462059716
C      0.956494368225     2.702628650044     1.580741211098
H      2.866352796045     0.141647780229     0.467209110582
H      2.030530964173     2.849858020900     1.709464023623
C      0.347713599325     1.595905834935     2.202641676812
H     -0.727919093680     1.487874936209     2.202732069374
C      1.067135440782     0.662074959768     3.082694925100
O      0.548975221998    -0.474636820974     3.243380716540
O      2.450172052578     0.841032773380     3.245870028151
C      3.170841745066    -0.251185767698     3.834804484153
H      4.243463446094     0.026457332482     3.930498376372
H      2.780797098964    -0.485471189442     4.851307406904
H      3.113648427792    -1.158492595449     3.191026506111
Pd     0.977562614162     1.027128525577     0.145481337182
C     -0.633137008795    -2.045372271088    -0.241680709774
O      0.471718303200    -2.447674204554     0.468199605410
O     -0.793346877030    -2.374262245336    -1.424720248493
C     -1.660583160962    -1.179294274975     0.516346721676
H     -1.194927523005    -0.627806784068     1.335515171525
C     -2.796827495564    -2.015280077049     1.068294106113
H     -3.502358840572    -1.363751532057     1.625329265168
H     -3.344026425009    -2.492884369111     0.228095561678
H     -2.407341685853    -2.795813296238     1.754010010365
N     -2.204343938033    -0.220528314796    -0.443771251589
C     -2.671126113376     0.983088614179    -0.035008477964
O     -2.713766322067     1.351097406868     1.165337221099
C     -3.135854759721     1.911984139416    -1.085826152111
H     -4.184407539810     2.168015756392    -0.859223452074
H     -2.505712522073     2.815759735064    -1.038933361518
H     -3.067844689138     1.446001897577    -2.084587164376
N      1.668247133583    -0.126123426644    -1.515133970416
C      1.051372927002    -0.366754403817    -2.714926794003
C      1.699939497929    -1.101544358283    -3.688821379901
C      2.953154888922    -1.627329521847    -3.453380522118
C      3.543582182855    -1.381769369035    -2.240860585668
C      2.847556122079    -0.616962400160    -1.285913428308
H      0.059481291427     0.028859818879    -2.901517639294
H      1.201372798068    -1.294228140956    -4.624408607491
H      3.457770116006    -2.223767806227    -4.208638481893
H      4.510880790870    -1.762509754573    -1.983359398697
O      3.481105859546    -0.429502966017    -0.125971550063
H      0.619184164233    -1.900035130928     1.273055853222

