# STO-3G

title

0 1
C     -0.360006882186     3.649373078383    -0.230626346332
C     -0.410220208895     5.065125123970    -0.179674229436
C     -1.331524864978     5.793109972298    -0.952430524948
C     -2.229409565476     5.118687910432    -1.801296057598
C     -2.187126798212     3.710785517287    -1.868401021290
C     -1.266221571657     2.982486282307    -1.097285186398
H     -3.018434822270     0.606211840035     0.536470000733
H      0.278153478387     5.595246648351     0.477192302273
H     -1.348993217264     6.879127406777    -0.892154610303
H     -2.942562696961     5.676592002293    -2.403638505571
H     -2.865877401088     3.178915245550    -2.532049444677
H     -1.248237477805     1.900551324112    -1.190543034921
C      0.622662886560     2.947854746139     0.631806208550
H      1.118311322865     0.308749039441    -1.511975407468
H      1.210608925771     3.609478064903     1.268722601677
C      0.594393602768     1.570301494877     0.954805204046
H     -0.180052494582     0.946942271176     0.543042191774
C      1.313707552948     0.973105891231     2.089530465468
O      2.334838694083     1.579915549113     2.511812194728
O      1.202475562089    -0.413542035205     2.259332294850
C      1.799122331767    -0.936849825803     3.452638277507
H      1.625987073903    -2.033579611525     3.496843582383
H      2.897928535413    -0.757455574576     3.464422243312
H      1.332628291608    -0.480099929060     4.355774219013
Pd     2.153406894498     1.886979163601    -0.545003710045
C     -1.243597898211    -1.116338668862    -0.184125230938
O     -0.142792665213    -1.910403832080    -0.213171245832
O     -1.592525571890    -0.388562210092    -1.138014473540
C     -1.981995437553    -1.120475644044     1.165257929872
H     -1.273994651178    -1.317182534855     1.973920749305
C     -3.090392069896    -2.148940183318     1.212467278727
H     -3.575079301837    -2.119432104478     2.210185494947
H     -3.850214305658    -1.905187996165     0.441258289856
H     -2.681427100245    -3.164417780027     1.033229027754
N     -2.571643757688     0.204174779814     1.354617320880
C     -2.274147045273     0.980718136146     2.434694741828
O     -1.510401563128     0.653719938106     3.370961084811
C     -2.910146236603     2.313385049977     2.438712267830
H     -4.002287728796     2.167039183970     2.407220177612
H     -2.610169039695     2.846041146497     3.356739826020
H     -2.565129764333     2.863116255666     1.544835416512
N      3.428707863789     0.502220495345    -1.574130701345
C      4.795441979545     0.529211478691    -1.668040077252
C      5.472724023954    -0.558679972560    -2.186286879936
C      4.783264037866    -1.675478979596    -2.615723230821
C      3.415887898295    -1.673495150584    -2.511939375854
C      2.779040537804    -0.537852051651    -1.978971442599
H      5.343459231436     1.401768015889    -1.331596620978
H      6.548338166852    -0.531674859801    -2.255843069682
H      5.310224448725    -2.532885448070    -3.026453562967
H      2.813445233205    -2.499669008147    -2.832450846653
O      1.434931427870    -0.595192430735    -1.895693465600
H      0.458612939922    -1.685012839364    -0.983545944735

