# STO-3G

title

0 1
C      0.679706053043     4.320792388149     0.482462415636
C      1.630075672717     5.365968578073     0.377321348977
C      1.327886102874     6.557077572315    -0.305620350144
C      0.063939277941     6.724990516082    -0.902306121345
C     -0.887687797931     5.687405329546    -0.812238821717
C     -0.589527471744     4.496311280358    -0.131475286799
H     -0.819389420394    -0.167058232409    -0.072630161350
H      2.609697492768     5.242074930233     0.837591800579
H      2.071569437367     7.348510596127    -0.369670881418
H     -0.175708321026     7.645103395087    -1.430640734520
H     -1.863636509422     5.806016393357    -1.277996062496
H     -1.329935588342     3.701126763765    -0.100689084072
C      1.052048167320     3.093028571236     1.229623375610
H      2.532044969157     0.167237881323     0.236955679001
H      2.065042427496     3.094047702062     1.634157886521
C      0.141753673308     2.111105389879     1.666757759347
H     -0.907034412334     2.226395216877     1.446687720467
C      0.440815353033     1.120198018038     2.710902990070
O     -0.507805946103     0.480749194064     3.238379212427
O      1.781694983198     0.775212548168     2.954001572602
C      1.999484698951    -0.234980935695     3.949513706152
H      3.090284200172    -0.420590309031     4.054454058648
H      1.604588888391     0.091158485100     4.938276106260
H      1.514589367356    -1.194291187091     3.659303547360
Pd     1.080862688141     1.523929505371    -0.274530380563
C     -0.304013700524    -2.191629356411     1.388050328440
O      0.586186629837    -1.645157840772     0.497746846879
O      0.004898796987    -2.950212268785     2.314759516913
C     -1.732760154682    -1.743843697442     1.019539773981
H     -2.304115343481    -1.754762886812     1.954422664594
C     -2.364955960217    -2.721276827265     0.047372063355
H     -3.412543132564    -2.426427483241    -0.160675330335
H     -1.798976355129    -2.702388486440    -0.907713411679
H     -2.354903464683    -3.748622242023     0.467855701733
N     -1.702558375140    -0.419006684643     0.385514145990
C     -2.620433579227     0.578511791851     0.435175094234
O     -2.466105814995     1.671276534203    -0.169827935190
C     -3.825552305829     0.387340778530     1.272460571548
H     -3.498237315282     0.268942091878     2.319875353981
H     -4.455177819901     1.290351210650     1.182155490920
H     -4.379581779973    -0.493666942205     0.911150697004
N      1.665534596569     0.266709254893    -1.886928522734
C      1.210397705958     0.273649601350    -3.177851662288
C      1.686548723420    -0.661350073522    -4.078787774785
C      2.613855868790    -1.606621014906    -3.686008163152
C      3.048023867578    -1.591497471522    -2.384778652455
C      2.535183724855    -0.614385396086    -1.511318412091
H      0.479129716818     1.010715264731    -3.489626907181
H      1.324456551994    -0.650914429183    -5.093931195789
H      2.989214544094    -2.344665804598    -4.389907182657
H      3.765551567664    -2.291364025492    -2.007094624074
O      2.977442867323    -0.655384787413    -0.243059243175
H      1.550307160944    -1.772393282764     0.661178245713

