# STO-3G

title

0 1
C      2.047730744095     2.516377685093     1.121607154898
C      3.065377148098     2.838889062390     0.194892429354
C      3.805768502177     4.027436100075     0.327623222273
C      3.535857272693     4.915118990313     1.388353287102
C      2.524567611327     4.602070049448     2.317446232200
C      1.785575960571     3.411837429096     2.182508838977
H     -1.631499497331    -2.063124219686     1.040325805442
H      3.285745861041     2.150998536539    -0.620574616884
H      4.592187472088     4.257901311476    -0.387791123476
H      4.110212237937     5.832807431124     1.492555034634
H      2.317903439835     5.277190859256     3.144868915002
H      1.009304458112     3.167996498717     2.906599002482
C      1.218468575235     1.248990817212     0.946899475227
H      1.845452764442     0.426093564440     0.591764199800
H      0.776273072438     0.957708908560     1.903218856830
C      0.140531766964     1.517370202048    -0.120301749585
H      0.593558282319     1.707705881966    -1.087650521154
C     -0.952156638371     2.477818067775     0.139457397234
O     -1.711084820872     2.767987348676    -0.821540890102
O     -1.372624392862     2.690333954316     1.461157777321
C     -2.372605505016     3.702221183419     1.642832917810
H     -2.600315342455     3.800954331681     2.726561772587
H     -2.006040621543     4.688578577270     1.277596319496
H     -3.314339641581     3.435283313195     1.111989300658
Pd    -0.810610450923    -0.291633667447    -0.546765375903
C      0.777156492367    -2.447216222245     0.186518183077
O      1.816845328635    -1.760352070165    -0.276013283398
O      0.038712355661    -3.235872204955    -0.465755173275
C      0.374817732048    -2.055387967752     1.636174868035
H      1.074104290791    -1.332117508861     2.049688482024
C      0.227718560800    -3.237360385011     2.571151547977
H     -0.095001308735    -2.883766657332     3.572319441694
H     -0.531496551527    -3.942442385718     2.173235452100
H      1.199674910343    -3.762968842488     2.670237009481
N     -0.966115481106    -1.403574444996     1.452852740142
C     -1.458964871702    -0.538499986861     2.438417495284
O     -0.755176054616    -0.020457479200     3.318314629688
C     -2.903119816991    -0.226511045520     2.377805597327
H     -3.357870338618    -0.602840777481     3.309970095346
H     -3.006420785302     0.869652418115     2.333004630041
H     -3.379665227622    -0.697831296175     1.501177161503
N     -0.511291988271     0.127381676589    -2.505053350151
C     -1.483635694276     0.762709762035    -3.229880658389
C     -1.280068534990     1.039942419846    -4.563445339788
C     -0.102071737732     0.689626772060    -5.182140247448
C      0.862481237015     0.059965710108    -4.442398133924
C      0.640046227655    -0.220243897905    -3.073576208507
H     -2.418034114886     1.039277680481    -2.755747424047
H     -2.052360090277     1.541674549585    -5.123226760719
H      0.060277296733     0.910390015075    -6.233845053454
H      1.801208761480    -0.232663877793    -4.869113299766
O      1.621127879977    -0.794288481355    -2.475147814929
H      1.744145310163    -1.379380994736    -1.332299140555

