# STO-3G

title

0 1
C     -0.743505964111     3.579862076801    -0.341952996930
C     -0.754563665477     4.560492294256     0.675010906526
C     -0.533165805444     5.915761347982     0.367759914195
C     -0.292890799986     6.307265288490    -0.963666578357
C     -0.282849600885     5.336187077351    -1.984444549098
C     -0.505816853937     3.982263122103    -1.675354498530
H     -2.423087630854     0.172512917782     0.911934021349
H     -0.949003423966     4.266974224039     1.706404359304
H     -0.554452104873     6.662438819090     1.158449719553
H     -0.124259503135     7.354375213046    -1.204070497664
H     -0.109606229510     5.633276440081    -3.016232579477
H     -0.512439653881     3.237775548688    -2.469860989544
C     -0.928336842536     2.104484685740    -0.011705791114
H     -1.525609221932     2.006308667727     0.904460326937
H     -1.449963076722     1.606342062445    -0.829659931421
C      0.457181739463     1.450545970490     0.161516440055
H      0.992804268155     1.429271076413    -0.782619717422
C      1.311415985811     1.910179197666     1.269590917580
O      0.976292214781     1.544922618014     2.427974661093
O      2.643200127403     2.254638041015     0.991423538667
C      3.414804210013     2.711411607772     2.110841274988
H      4.437244017826     2.979083157394     1.765997317173
H      2.955266513344     3.620089493399     2.562312013297
H      3.507360426989     1.917088330483     2.885576856154
Pd     0.240803148751    -0.554866434361     0.655738359655
C     -2.427579862979    -0.583561756744    -1.463677166819
O     -1.323674356427    -0.418032917677    -2.197829346440
O     -3.455283808110     0.108921486719    -1.629962874996
C     -2.352470176162    -1.583367230763    -0.259329771985
H     -1.589189131861    -2.351978322160    -0.411446420455
C     -3.686353797096    -2.244429853123     0.025499498153
H     -3.584980876674    -2.972828070243     0.856106888240
H     -4.432161990391    -1.472793199145     0.310671671515
H     -4.044642427479    -2.780984563772    -0.877184414474
N     -1.967690422680    -0.739446169134     0.923406063874
C     -1.655328356718    -1.326158033695     2.162383316203
O     -1.398566408967    -2.538953265936     2.300993629789
C     -1.614667246455    -0.428124597467     3.333507683634
H     -2.371277876196    -0.785917833923     4.052776336175
H     -0.608271536715    -0.494323780193     3.781473702010
H     -1.828581241416     0.616392985647     3.045758124304
N      2.075245531349    -0.891269152037    -0.129847813275
C      3.281856079069    -0.810628955100     0.508988409241
C      4.431516546606    -1.200690593291    -0.141939192474
C      4.383773832232    -1.668848079575    -1.436455939743
C      3.167722149314    -1.743021478029    -2.062814286590
C      1.995050826155    -1.338994553267    -1.383533068025
H      3.330885773104    -0.448422232702     1.529123974739
H      5.378024404310    -1.133482238460     0.368878999062
H      5.291771704523    -1.973485633154    -1.950303145143
H      3.069322854561    -2.097050593374    -3.069747926897
O      0.901758730640    -1.436488133059    -2.044288099488
H     -0.396333407089    -0.915764714770    -2.022830227253

