# STO-3G

title

0 1
C      1.499181787904    -0.196067055599     2.597077881688
C      2.272276714486     0.980605973831     2.538668095964
C      3.678812271046     0.903975972614     2.565833712360
C      4.315287073101    -0.350180990637     2.655027684543
C      3.543550472408    -1.528016015160     2.716143511148
C      2.137076800859    -1.450585423491     2.685887136225
H      0.414326757048    -0.150967433071     2.573774903680
H      1.788898896827     1.953511068400     2.473468835620
H      4.271770864511     1.814590651623     2.521039242919
H      5.401175530095    -0.408157570219     2.680306645148
H      4.032173936831    -2.497009375377     2.786896544201
H      1.540746822188    -2.358797045877     2.718477316524
C     -2.503638333917     1.413445462354     1.349069604550
H     -3.215238388493     1.830246724038     0.640774116197
H     -2.735829963052     0.454723751094     1.812150131374
C     -1.399901082403     2.139891028831     1.786489666705
H     -0.794793236468     1.755609794273     2.596503577836
C     -1.078855709920     3.515306994543     1.361684498742
O     -1.844028490345     4.118488871981     0.563859857428
O      0.080162733179     4.121971836815     1.872850911391
C      0.399223798202     5.410702261549     1.329932359591
H      1.333774293238     5.787544128574     1.798249550170
H      0.563808656722     5.344290857537     0.229645575825
H     -0.414360364640     6.142148457863     1.538766280953
Pd    -0.715856891394     0.774214036749     0.065756793649
C     -0.317553237635    -2.052473579142    -0.111294470346
O     -0.387075414786    -3.261909047724     0.162106383061
O     -1.069559657576    -1.143015461377     0.569999201456
C      0.616732986865    -1.489067785269    -1.256079684181
H      0.308796523041    -1.978673996729    -2.191840603391
C      2.074130481572    -1.797702577556    -0.980807339727
H      2.699831866967    -1.504663417602    -1.845981420831
H      2.412415136874    -1.230963979423    -0.089094606077
H      2.207647073115    -2.884096884138    -0.795449904427
N      0.441602202437    -0.053310483969    -1.289809387448
C      0.819064822522     1.047838571382    -1.896824615656
O      0.379849435499     2.166595062659    -1.365002584556
C      1.652410762298     1.065264446138    -3.106173348655
H      2.600513689743     1.568072586900    -2.851619230838
H      1.829031873198     0.032717044277    -3.446308288067
H      1.110413702670     1.635439086925    -3.880813539839
N     -2.291233858399    -1.046306455538     3.409706967440
C     -1.969759971714    -2.344873593009     3.113281832865
C     -1.052072523715    -3.020160751743     3.901632310845
C     -0.450724353921    -2.391540668626     4.974394815479
C     -0.788118716402    -1.087219187756     5.235696335309
C     -1.733393350352    -0.460433818831     4.401039788125
H     -2.436916724351    -2.840194821284     2.269869087044
H     -0.797717446328    -4.037431371031     3.652814230262
H      0.280459282860    -2.912096074203     5.586661942843
H     -0.351159412178    -0.527912167846     6.037795464460
O     -1.980859762105     0.842452469887     4.710621441214
H     -2.659764079318     1.199227318473     4.100527847098

