# STO-3G

title

0 1
C      0.813844432718     2.491062061622    -0.891612132083
C      1.629514848518     3.642994319022    -0.979345236191
C      1.255452169699     4.732733812633    -1.794393676987
C      0.061205584500     4.690418871617    -2.537234872835
C     -0.750194845202     3.541255135368    -2.469874276904
C     -0.372880130339     2.448520451374    -1.663029847452
H     -2.224494037039     0.756918453200     3.642747061540
H      2.554053576650     3.714963066881    -0.410211408908
H      1.895293843962     5.612344626201    -1.837814949913
H     -0.227555806691     5.533063867289    -3.161404760766
H     -1.668565774171     3.486727310876    -3.052095776423
H     -0.996315764928     1.557511980290    -1.663202793803
C      2.188497778161     2.030222523550     2.052860819736
H      2.742563874186     2.890387181223     1.691396019043
H      2.753576704937     1.204780391515     2.474724681070
C      0.806736556116     2.068552386289     2.206631371250
H      0.319090184759     1.253809182819     2.720625758914
C     -0.028812971627     3.265514295108     2.002056549661
O      0.515751014947     4.383932828536     1.803903748989
O     -1.420279340381     3.099003951403     1.902223558942
C     -2.159706851193     4.265365252310     1.514444015773
H     -3.241893146656     4.018542132889     1.465990229687
H     -2.023347069025     5.085585350956     2.255727759115
H     -1.836829693830     4.619886696778     0.507988809845
Pd     1.346457847857     0.918144093475     0.244502283334
C      1.647733575887    -1.125287359889     2.536021151222
O      2.259911069541    -0.820768700265     3.592953828198
O      2.007382843477    -0.835014687901     1.305469235306
C      0.265800850485    -1.885035577241     2.657380608050
H     -0.064306982316    -1.816933565755     3.697469781665
C      0.374344322892    -3.334920037417     2.244463931231
H     -0.620006545840    -3.820058050438     2.329070866868
H      0.720224671543    -3.405298216263     1.192017983907
H      1.094026956992    -3.863087677040     2.903360397794
N     -0.696517356267    -1.248372453009     1.746915635364
C     -1.565372439241    -0.394688916670     2.136954563667
O     -1.640556647378     0.003584141787     3.437797939247
C     -2.487587607158     0.167444450114     1.136690867661
H     -1.896313961102     0.733905250010     0.401816001864
H     -3.008065352447    -0.674277882106     0.646390351316
H     -3.219465872989     0.835459320989     1.623370409372
N      1.228975323985    -0.237964347451    -1.462943088580
C      2.083426501573     0.072611300794    -2.487054160396
C      2.069321787148    -0.667584467293    -3.649339133052
C      1.202280649106    -1.725893303004    -3.792530697887
C      0.359459112338    -2.020892955999    -2.754897633064
C      0.398272755102    -1.248360988018    -1.569805903444
H      2.769585950540     0.905314197634    -2.384663592219
H      2.743940429985    -0.411683570433    -4.449707337387
H      1.186624686890    -2.313093108651    -4.706852237584
H     -0.336671815982    -2.833824840618    -2.805164216521
O     -0.458778046224    -1.626427264379    -0.668921024572
H     -0.518144212141    -1.401757724971     0.503122605671

