# STO-3G

title

0 1
C      0.795962155364     3.337591226334    -0.660054889979
C      1.923181979454     3.214479039529    -1.493538918531
C      2.695666887922     4.360163800652    -1.780685601366
C      2.354719421833     5.614108522636    -1.238442731821
C      1.223944725461     5.728090334106    -0.408844182932
C      0.445885935320     4.590063096052    -0.108024385475
H     -4.111742265055    -0.872948494696     1.770934153848
H      2.185885764237     2.261838016127    -1.949036817767
H      3.556876387804     4.264483622435    -2.438390139071
H      2.957250681102     6.491104197366    -1.463743024374
H      0.943406377508     6.692425208959     0.009810959761
H     -0.423161908016     4.702712252693     0.534925586081
C     -0.797887442060     2.110863899846     1.726818249483
H     -0.660271683920     3.136984206336     2.046064638714
H     -1.800477136492     1.698929825016     1.779463466301
C      0.298139409684     1.231109636179     1.585881449791
H      0.119250765076     0.166691782984     1.479826859438
C      1.699190254652     1.611253264814     1.843083753808
O      2.604132614747     0.753382963372     1.680467533458
O      1.997053581869     2.927894144238     2.234632843401
C      3.383305202530     3.292048242410     2.193773642259
H      3.493970097778     4.352585940353     2.505719613152
H      3.982527570423     2.657888748295     2.885787017252
H      3.783323677601     3.196064782362     1.158168808965
Pd    -0.487818949334     1.827657244937    -0.431879297265
C     -2.461312485288    -0.569832292608    -0.810930486964
O     -2.207683685677     0.523825663961    -0.166898936450
O     -2.010068377060    -0.853356841861    -1.982960292343
C     -3.301403304631    -1.639637335408    -0.063689043942
H     -2.798085057142    -2.595246117036    -0.247972938833
C     -4.723697623659    -1.729387623749    -0.571752037637
H     -5.259858160429    -2.533851022480    -0.026780742694
H     -5.243766024369    -0.766367427572    -0.392687976080
H     -4.729657379169    -1.959217084449    -1.657446327507
N     -3.328396212859    -1.374160607416     1.372250024323
C     -2.181162394974    -1.470427863725     2.092332411261
O     -1.070735208819    -1.813683066817     1.618258631155
C     -2.292090737156    -1.135758366554     3.527401985322
H     -1.300332313286    -1.258165785150     3.997463322815
H     -2.635097829318    -0.091915048675     3.608779502227
H     -3.024353072038    -1.825117765085     3.982416073724
N      2.350751820446     0.194686231142    -2.393901146359
C      3.497670134782    -0.485258807801    -2.081264686690
C      3.439823428047    -1.606759780396    -1.275810989922
C      2.232996797142    -2.041738220429    -0.771972806210
C      1.098428126897    -1.351915645007    -1.114452768829
C      1.221734169217    -0.211896780854    -1.950398979694
H      4.450396347179    -0.136076094998    -2.461451445420
H      4.348707671591    -2.124675199632    -1.019888022825
H      2.182044562969    -2.906108404616    -0.114836562936
H      0.148673227314    -1.646899193776    -0.719065311110
O      0.072257764425     0.492470820126    -2.202945689774
H     -0.815270939576    -0.093965823232    -2.242708228795

