# STO-3G

title

0 1
C      1.956228956009     3.925343467326     0.339593764216
C      1.898669650805     4.546076824661     1.603052507381
C      2.392450076771     5.859377513932     1.751581595256
C      2.925891393325     6.549373614128     0.645426692852
C      2.969287567382     5.925551317026    -0.616400893922
C      2.474431752657     4.614070440156    -0.776973902464
H     -0.212614074452    -2.454937244763     1.170354191033
H      1.498875125357     4.018915548610     2.466732940960
H      2.359983175561     6.335620738953     2.729013405997
H      3.302345061441     7.562363029576     0.765765393614
H      3.380572235080     6.452060401208    -1.474937185921
H      2.501995964517     4.147636414263    -1.761553049290
C     -0.624185225015     2.227645351453     0.586572516723
H     -0.788693567368     3.091658069871     1.221839988509
H     -0.792069853516     1.262953960573     1.055407700236
C     -0.484360919424     2.339305120047    -0.813241389118
H     -0.522957318524     1.437549604396    -1.411556258154
C     -0.628586060617     3.602774904364    -1.556330509738
O     -0.348696872122     3.614617315877    -2.782994628941
O     -0.927212728696     4.786434988302    -0.859968209435
C     -0.889688796658     5.996434566381    -1.628749994470
H     -1.137840184392     6.856778520275    -0.970537536998
H      0.128074248686     6.167005425385    -2.047126215665
H     -1.632797663331     5.963794182218    -2.457403384603
Pd     1.520444775701     2.006489137976     0.154411216803
C      1.991459495946    -0.404956752180     1.196245307584
O      1.223534038215    -0.128037942959     0.142018987940
O      2.916681414712     0.409409796553     1.511907365396
C      1.613100820798    -1.648784532662     2.025005398310
H      1.917530899296    -1.434140980019     3.054981954433
C      2.315242868895    -2.900328148636     1.545519162137
H      2.037508670060    -3.750240410317     2.202525225389
H      1.989760528102    -3.134333279809     0.510044180167
H      3.415513185327    -2.760908251674     1.571899534766
N      0.171432877694    -1.880659716752     1.960524360037
C     -0.647414189567    -0.976895654783     2.551774128875
O     -0.266579224675     0.067759244527     3.148103570255
C     -2.092297774106    -1.270554326346     2.459614421083
H     -2.652540871408    -0.492168755141     3.005309394785
H     -2.370653724065    -1.279373623910     1.393416101471
H     -2.264651088881    -2.264111451197     2.908080244661
N     -0.944118871692    -2.987760842249    -0.351120941538
C     -1.503237076860    -4.230685420735    -0.464274470618
C     -2.416316814019    -4.489706913161    -1.470885894745
C     -2.767764427157    -3.502234366980    -2.367413760447
C     -2.189045484394    -2.266503690463    -2.235342450905
C     -1.257214507943    -2.055070409406    -1.195221435209
H     -1.233500466993    -5.007116470416     0.241941854215
H     -2.853024223878    -5.471201264838    -1.549270751681
H     -3.484870914422    -3.699435701562    -3.159619903597
H     -2.411795253484    -1.455105514341    -2.897581557587
O     -0.755592058841    -0.823754490012    -1.153206322070
H      0.058477557666    -0.670167501354    -0.522202857491

