# STO-3G

title

0 1
C      1.390906297901     4.115187652785    -0.154815185212
C      2.651959644513     3.782744623173    -0.695358627482
C      3.529073843807     4.815051966140    -1.089111996452
C      3.158667647381     6.163902046343    -0.920519010824
C      1.908459767915     6.486085590657    -0.356676135379
C      1.024464179863     5.462707741359     0.045549575927
H     -0.663142654324    -2.051759609304    -0.497296295857
H      2.940156713968     2.741441773572    -0.829597635110
H      4.495203749206     4.563554031800    -1.520878885312
H      3.840553999789     6.956553669510    -1.218619922907
H      1.621170343186     7.526350833108    -0.220696925492
H      0.066520430399     5.722898286761     0.493489464614
C      0.823092660889     1.722024606493     1.862724456656
H      0.257000097147     0.798350892309     1.952950174407
H      1.893514733802     1.627867937103     1.699659352997
C      0.265317128377     2.966378532813     2.226023898489
H      0.914762210200     3.822144289992     2.324756259529
C     -1.094065712762     3.153590077981     2.763149481155
O     -1.490409456354     4.330038987039     2.970386877411
O     -1.974470037531     2.064977714734     2.814059189621
C     -3.334420366856     2.362358751822     3.156106206598
H     -3.921743476855     1.418967156311     3.161150315704
H     -3.399529589889     2.822368374976     4.167519720594
H     -3.790714961220     3.042153007303     2.401209369423
Pd     0.084442705643     2.641224689428     0.002370148924
C     -2.280404735572     0.511503984214    -0.002451523284
O     -1.020098830278     0.887127538769    -0.281064150734
O     -3.241109412728     1.303289175834     0.090005888105
C     -2.436167474388    -1.037860589236     0.086640803868
H     -2.770533962665    -1.356189495576    -0.911324700110
C     -3.492790531688    -1.461937504338     1.087191449707
H     -3.546081906221    -2.569469475868     1.124818578574
H     -3.237021445629    -1.077345447660     2.095347903016
H     -4.483437472874    -1.060693171039     0.789707615020
N     -1.184775782994    -1.752937272317     0.351085789778
C     -0.484385553174    -1.661179056104     1.506662123760
O     -0.776184078467    -0.948884446867     2.507049217710
C      0.727251567034    -2.507613587222     1.575091796886
H      1.428681980339    -2.172132627212     0.796063069965
H      1.177627236417    -2.402191215002     2.576719538467
H      0.420821888911    -3.552328756155     1.394524506989
N      0.602632881825    -1.994447299313    -1.859603250434
C      0.914108973282    -3.070399988179    -2.643797919871
C      2.106091704969    -3.091392645039    -3.346370154079
C      2.985605113017    -2.032014407184    -3.264414953839
C      2.646834514697    -0.963114590744    -2.474562362038
C      1.414592912072    -0.989593117226    -1.784274956383
H      0.227858881427    -3.906809127622    -2.706049711355
H      2.343315731270    -3.945093371677    -3.959151834364
H      3.923500701050    -2.044426056346    -3.813069600674
H      3.280877344122    -0.108114835083    -2.367331147381
O      1.176727317794     0.092162698152    -1.039586154477
H      0.198568069881     0.187663073478    -0.682779479289

