# STO-3G

title

0 1
C     -0.555706145651     2.114276498277    -1.310299858068
C     -1.437116538493     3.213885229097    -1.413490898031
C     -1.877906876683     3.650850961050    -2.680044563160
C     -1.454455146739     2.987407834815    -3.848273242929
C     -0.585776207035     1.883864509754    -3.745092869582
C     -0.129256756865     1.451156069295    -2.482203583219
H      0.852374409400    -1.370221259919     0.137988967983
H     -1.791738882045     3.719197243928    -0.518075285882
H     -2.553100556585     4.501672126148    -2.749894536259
H     -1.799176906653     3.323060368463    -4.823883101368
H     -0.259536742736     1.359108591259    -4.641114343726
H      0.546185634231     0.601786499507    -2.421365595200
C      0.496724059010     0.288834505653     2.597680438347
H      1.283436801353    -0.412611061343     2.338526874490
H     -0.498961544887    -0.132772865223     2.687409127035
C      0.730805388269     1.611252895825     2.882673022723
H     -0.090196885283     2.257309843447     3.161008419527
C      2.069690399997     2.220668606787     2.939514056704
O      2.154965518518     3.475673436120     3.003083243473
O      3.215038331071     1.411451389509     2.851505887755
C      4.473327207259     2.097223216311     2.815883413176
H      5.292308440328     1.350883509638     2.730577841763
H      4.530701416897     2.772534984110     1.933091421126
H      4.630239235492     2.685943863003     3.747523631374
Pd     0.036399615282     1.569684082152     0.532248757882
C     -1.150739431330    -2.435217556605     0.628438417469
O     -0.275425384632    -1.608278961521     0.056042266453
O     -0.951800802038    -3.554092082010     1.133796183268
C     -2.593933576859    -1.776729566172     0.610821441821
H     -3.110553178466    -2.063726036549     1.531493492670
C     -3.407510581167    -2.209293239918    -0.585208973578
H     -4.394845167617    -1.703883569903    -0.569289232866
H     -2.876453089921    -1.932946163581    -1.520825380999
H     -3.558494006218    -3.308949666452    -0.563392217140
N     -2.351758955760    -0.333072511364     0.503841266848
C     -2.684795478972     0.710431653236     1.246216339043
O     -1.954094057424     1.769300094793     1.298575542425
C     -3.924932000827     0.663749067624     2.032091743885
H     -4.759769494357     0.449421382909     1.342154060361
H     -3.830211562387    -0.123428427519     2.797926938170
H     -4.079768730213     1.644628194105     2.519138965790
N      1.937336115975     1.332844047196    -0.145494910883
C      2.587973995679     2.470415303103    -0.542103563126
C      3.905913752821     2.412978874817    -0.939874252858
C      4.580655982613     1.213763536233    -0.949490965758
C      3.910180041503     0.085603420636    -0.564666819484
C      2.551057084068     0.161775644005    -0.173006137701
H      2.068354276338     3.421474940092    -0.526586585928
H      4.407015437740     3.315913814937    -1.246537077210
H      5.620035474824     1.162200405874    -1.261653725827
H      4.371730742555    -0.881197020678    -0.560919606040
O      2.016057107898    -0.975280699721     0.132602001072
H     -1.473835203864    -0.205392624510    -0.026146384933

