# STO-3G

title

0 1
C      0.052608170897     2.087454642949    -1.663780931331
C      1.229491580327     2.852418480830    -1.820302645875
C      1.178894035854     4.098655778286    -2.481600170812
C     -0.038722019865     4.578653083227    -3.000207108113
C     -1.210796274131     3.811163330209    -2.848336020963
C     -1.169210174090     2.569636460913    -2.181230578172
H     -0.883925768611     2.021538858247     1.292266990291
H      2.181589328919     2.489635430397    -1.436639498305
H      2.089101538096     4.685613122372    -2.591381528467
H     -0.074790454495     5.536872815726    -3.513681877998
H     -2.156738800578     4.177008212786    -3.243173955329
H     -2.083312802096     1.994591610146    -2.053336383218
C      1.461343056424     1.301806757676     1.954076124397
H      1.247412200174     0.415508335529     2.547955758138
H      1.949035494093     1.101866593492     1.004683804105
C      1.138769187111     2.566133868851     2.328829856504
H      1.375409701444     3.392310967085     1.671962191336
C      0.528188771853     2.933416844751     3.617545846137
O      0.140340840308     2.032509603478     4.411280574559
O      0.312881627928     4.293945450670     3.897681283419
C     -0.315143129527     4.584751421857     5.154243301764
H     -0.426966427034     5.685090128983     5.263640841386
H     -1.328587239394     4.126084854773     5.205790070883
H      0.303966536390     4.212216295777     6.001809798824
Pd     0.041330923930     0.370989889513    -0.665550808154
C     -0.415724507528    -2.497249908453     1.079882107758
O      0.365126604799    -1.462411705155     0.731306537835
O     -0.021424997446    -3.637574847603     1.389800098952
C     -1.957144591032    -2.132957772737     1.141405232360
H     -2.283923290932    -2.358952449346     2.172879159986
C     -2.771623482937    -2.950947791121     0.170476619765
H     -3.840697574938    -2.668029279856     0.257330510206
H     -2.431913225702    -2.742872164985    -0.864960338656
H     -2.658464295273    -4.033141056353     0.389168292746
N     -2.035990229914    -0.755141975423     0.731116905607
C     -1.944985541138     0.291136703010     1.416574965258
O     -1.437656587304     1.417849368621     0.741731575516
C     -2.247324446660     0.388079655335     2.856294892158
H     -3.263555757562    -0.007861138425     3.019756439892
H     -1.493219161396    -0.197417769803     3.409456363733
H     -2.201563567701     1.445957416809     3.168992059885
N      1.571646075909    -0.349643544342    -1.844489745144
C      1.589696236596    -0.095193245592    -3.191439531314
C      2.702131733432    -0.415158529739    -3.941252878977
C      3.799745137386    -1.001795722128    -3.353180094491
C      3.750299796993    -1.275549924850    -2.012706208322
C      2.591615108542    -0.952979631160    -1.273285754317
H      0.734149640894     0.366624051679    -3.670356010548
H      2.708432944620    -0.198661316867    -4.997066301085
H      4.678667633316    -1.253361003259    -3.940894043616
H      4.560477178136    -1.754925451684    -1.499891354884
O      2.630265595249    -1.297639797738    -0.013170993495
H      1.625126489396    -1.449693046382     0.461859894481

