# STO-3G

title

0 1
C      1.469026566573     3.200087789234    -0.467494292442
C      2.750067436166     3.651162392427    -0.096693371662
C      3.134518952649     4.974421393616    -0.403907872104
C      2.247037427834     5.838878753322    -1.072482716101
C      0.966449139441     5.378704561462    -1.436595976151
C      0.572270686181     4.057939118014    -1.137203693176
H      0.672771290650    -2.349863277015     0.134388774980
H      3.446364938751     2.995470917349     0.420825726214
H      4.124266871675     5.322680383308    -0.115791231730
H      2.548277129508     6.857686439400    -1.304195251829
H      0.270805766958     6.041399727320    -1.947513351217
H     -0.422804416999     3.715765862229    -1.414879379604
C      1.140813618149     1.287675918527     2.072278770990
H      1.968005880189     1.924497997679     2.371202402492
H      1.280925450829     0.213873264187     2.188439596429
C     -0.134789466759     1.800235752705     1.824618555124
H     -0.952220000678     1.107159035841     1.661947513728
C     -0.510175886787     3.215319055299     1.986736206691
O     -1.650613041852     3.583604842508     1.601738456184
O      0.447166345357     4.139864417480     2.439611814222
C      0.058784999828     5.519445164641     2.394132880348
H      0.894647027666     6.148485353543     2.768490397455
H     -0.164203667123     5.831536900791     1.348705736452
H     -0.832453363340     5.702560199239     3.036083128765
Pd     0.930877364609     1.321258409573    -0.158333557103
C      0.123742558111    -2.485648977785     2.058864384353
O      0.194575016403    -2.956321256154     0.776920678193
O      1.019159840689    -1.804270361175     2.594763890661
C     -1.201306034204    -2.875824889946     2.752709009414
H     -1.227369124424    -2.316802998438     3.698022973407
C     -1.260628237099    -4.352224199144     3.072088614490
H     -2.184645941438    -4.571758847275     3.646147543929
H     -1.286989450452    -4.925942045243     2.122441052743
H     -0.376485402956    -4.656405792406     3.669154465653
N     -2.417923528963    -2.574871171298     1.989639877690
C     -2.515555442010    -1.641643690493     1.128761206765
O     -1.551040611795    -0.692334225401     0.804024290308
C     -3.817992483195    -1.483177344329     0.473755245940
H     -4.031293223779    -2.418397082487    -0.072292440562
H     -4.570351432518    -1.330206022805     1.266618576871
H     -3.792213367875    -0.619399907198    -0.213083198937
N      1.173060117549     0.716436329723    -2.128622010530
C      1.559992005096     1.223963164485    -3.336047905830
C      1.597133958613     0.393953803245    -4.441069988967
C      1.254398970812    -0.941412185726    -4.333827740591
C      0.869746493017    -1.424390556831    -3.108045427439
C      0.843241632471    -0.546104561342    -2.005806912034
H      1.832987666432     2.269446427998    -3.423830432589
H      1.903926257091     0.794765038094    -5.393212274174
H      1.291217807498    -1.595598884674    -5.200865493426
H      0.603688286895    -2.450025444622    -2.945032048082
O      0.486640492447    -0.997616083730    -0.830226613138
H     -0.927115338968    -0.889999165828     0.043921333242

