# STO-3G

title

0 1
C      1.371421584443     2.801207429636    -1.500766107729
C      2.680802512857     3.200616723350    -1.841593337993
C      2.877346138961     4.139452472369    -2.877862369280
C      1.775066281391     4.677835899075    -3.567856024967
C      0.471414087730     4.269390393414    -3.223420560389
C      0.263443974050     3.328420456306    -2.193431255812
H      0.701731899225    -1.011698042984     0.848357197152
H      3.545479257790     2.791934679874    -1.322914417631
H      3.888238986173     4.445694156523    -3.139219441523
H      1.928162006269     5.402696023727    -4.363879213212
H     -0.387537081784     4.673825251266    -3.755177181178
H     -0.744377257507     3.001303191709    -1.949024981759
C      1.941002224767     2.783561502146     1.573122237725
H      2.162755338534     2.124721184379     2.406929735544
H      2.788136209010     3.229233916209     1.061771285941
C      0.654149977326     3.251130921210     1.310053236391
H      0.507185448591     4.007414938290     0.554221306703
C     -0.534843790815     3.002821859889     2.147332916813
O     -1.622367213907     3.540679328019     1.811707160070
O     -0.407401324657     2.308122410082     3.362836554320
C     -1.602006933696     2.209547764597     4.151519539675
H     -1.380305258305     1.657950678458     5.090167239525
H     -1.979685132255     3.220361504165     4.426969137631
H     -2.394782076369     1.656409931624     3.597561549061
Pd     1.156150347180     1.449299246381    -0.053538498610
C      1.160268368123    -0.445586473397     2.709198441596
O      1.336646231997    -0.417184346429     1.312574240529
O      1.979978648150     0.137632606107     3.418438330376
C     -0.095741545840    -1.203468528389     3.217335680748
H     -0.648084498222    -0.443065394391     3.790201454542
C      0.290832244127    -2.318302433664     4.160513448231
H     -0.625455116683    -2.770200717355     4.593702966467
H      0.836477816141    -3.100998393625     3.594519930491
H      0.929690065194    -1.933512446757     4.982712343006
N     -0.937278047178    -1.812879305400     2.185778875936
C     -1.573721450909    -1.084405289069     1.328547675338
O     -1.474593812901     0.262297821772     1.209846384697
C     -2.484163048715    -1.815948622663     0.432195144471
H     -1.868442839330    -2.477703880218    -0.201219063155
H     -3.153932871963    -2.423018023044     1.065677173350
H     -3.078863132701    -1.118307964022    -0.182921144260
N      0.593455278990     0.075403649448    -1.511868281509
C      1.503254745711    -0.604933926907    -2.271864342680
C      1.092398288673    -1.272584793462    -3.406221516528
C     -0.230372556042    -1.261254316149    -3.789730727056
C     -1.130688127378    -0.573298765722    -3.019774970771
C     -0.689209387373     0.112087994840    -1.863881919939
H      2.545594823943    -0.623719898800    -1.975770360579
H      1.818198095858    -1.807139152840    -3.996637167156
H     -0.552475619331    -1.784842725201    -4.685911611902
H     -2.169321079433    -0.515405640734    -3.275023149106
O     -1.591060427841     0.750290258560    -1.200283249882
H     -1.604995670757     0.622834788075     0.216749914245

