# STO-3G

title

0 1
C      1.492383112988     3.404584282650    -1.708393457822
C      2.897778943442     3.336008573999    -1.783597997038
C      3.607203668474     4.352440132435    -2.458097158142
C      2.918818752327     5.426691596773    -3.054214730730
C      1.514082266525     5.484929036361    -2.975851991510
C      0.794400505870     4.474427540898    -2.303077567531
H      0.913960207600    -0.589986598171     2.101894930703
H      3.441786380257     2.509508536358    -1.331492943603
H      4.692755604996     4.301904933649    -2.511678822231
H      3.469782193357     6.209559590775    -3.569943279765
H      0.974464950811     6.312187180029    -3.432501261278
H     -0.291643333396     4.528411354339    -2.256617382368
C      1.100678031394     2.577556729821     1.170378740018
H      1.159138544360     1.681460475189     1.785279581153
H      2.042916019474     3.075694804154     0.968327834745
C     -0.102053149690     3.224572843810     0.877887851452
H     -0.084403936161     4.204381671817     0.424212994252
C     -1.416969461876     2.824085461872     1.411750104292
O     -2.428827484496     3.489483392078     1.069454856872
O     -1.533345797263     1.673304764050     2.205472253602
C     -2.793713709817     1.492399795581     2.865813707671
H     -2.746632678617     0.583350551946     3.505398257338
H     -3.021061391159     2.358205368527     3.527945617068
H     -3.615295041587     1.362767144027     2.126308300526
Pd     0.479851232500     1.912121585845    -0.884757280254
C      0.877467358930    -0.180037675199     4.063545421192
O      1.373616678225     0.002857969022     2.798137820671
O      1.217611873632     0.558468872053     4.999012380300
C     -0.094969884309    -1.391880231028     4.305000512885
H     -0.535963573623    -1.174823492990     5.282717618633
C      0.681074667132    -2.690597457855     4.425834295374
H     -0.007312159624    -3.511692366621     4.715225056204
H      1.141947982965    -2.933237940398     3.446634774688
H      1.474933717257    -2.595713334351     5.195630392814
N     -1.211984829199    -1.647234199987     3.386661062884
C     -1.209915953839    -1.623141258415     2.113023320161
O     -0.127411198094    -1.331146508572     1.302151237668
C     -2.464572429373    -2.015510167523     1.451858351172
H     -2.723872131568    -3.026921935077     1.809968321593
H     -3.241675291071    -1.299468234590     1.764189921783
H     -2.354135342412    -2.012075554509     0.354453681976
N      0.433526620452     0.725056822873    -2.592770556473
C      0.855117694873     0.712127474209    -3.890955007221
C      0.630381540941    -0.411829623762    -4.664477431840
C     -0.015531726232    -1.516082353336    -4.138801976367
C     -0.433501706332    -1.474865132091    -2.830657528030
C     -0.185848926418    -0.309354027085    -2.077074820338
H      1.364145849092     1.574911593015    -4.305767127033
H      0.965749928578    -0.422850655934    -5.688843700116
H     -0.189955247928    -2.398286509321    -4.749255860326
H     -0.941193314587    -2.293769109299    -2.364486655411
O     -0.574650136754    -0.237210970206    -0.833448990602
H     -0.331521331958    -0.968793510815     0.346575643220

