# STO-3G

title

0 1
C      1.375310140030     2.944469984773    -1.181268143889
C      2.708399374138     2.882618436457    -0.727126524775
C      3.688051826200     3.699209459559    -1.333694364189
C      3.341542393433     4.577233937168    -2.377011525813
C      2.005288223398     4.640907019293    -2.818598186246
C      1.020119108686     3.824790141771    -2.225766793554
H      2.109679991217     0.083589076720     0.029451635813
H      3.000365054865     2.219679527544     0.083333956496
H      4.716905263243     3.645293231659    -0.983649336186
H      4.100094704529     5.205909673806    -2.837214426010
H      1.726176370086     5.322173057249    -3.619906683878
H     -0.007848204820     3.880251566069    -2.578404975530
C      0.295686133696     2.341104823801     1.656241504052
H     -0.043514829345     1.473634330210     2.212250772122
H      1.362822023061     2.515279888688     1.700382699362
C     -0.572266185461     3.288071498686     1.110229223045
H     -0.173774586970     4.203938256992     0.700988770952
C     -2.038729009254     3.249520992517     1.246733286810
O     -2.719800793766     4.128971878474     0.659898294504
O     -2.646402885271     2.160698173273     1.895054800320
C     -4.080081119628     2.128309989919     1.853738593415
H     -4.446381721003     1.234710762839     2.403216889348
H     -4.512540136528     3.034159458143     2.336578001152
H     -4.442490851991     2.059153691621     0.802526124939
Pd    -0.051627967843     1.752241775479    -0.472975240824
C      2.209678746498    -1.256795867577     1.473149280434
O      2.117765914983     0.066039579032     1.013428254149
O      2.582220612938    -2.168661965118     0.725815443023
C      1.885840950663    -1.314926642347     2.985475752140
H      2.549980240331    -0.581898611515     3.466180799530
C      2.184449879466    -2.676855261216     3.574080311435
H      2.017678796546    -2.654995065828     4.671245835978
H      1.503931289640    -3.427052779723     3.122033431179
H      3.237219856632    -2.964061025982     3.372225041016
N      0.519276095863    -0.972794758907     3.402440036645
C     -0.476608310393    -0.975345754596     2.597771437202
O     -0.409604849231    -1.276135989571     1.272983244086
C     -1.795385044877    -0.701442225423     3.188059306354
H     -1.976782229767    -1.467902596087     3.961288602438
H     -1.755243481107     0.296558715090     3.657072572286
H     -2.581432813168    -0.736402165870     2.413929149602
N     -0.195725502932     0.524367680707    -2.129647409042
C      0.352900668502     0.333239794957    -3.364465686430
C     -0.167151971991    -0.643509897301    -4.193170825945
C     -1.224090377484    -1.433789035462    -3.780684828875
C     -1.758002554528    -1.223846654589    -2.532788292291
C     -1.203618700716    -0.216926954297    -1.716280047390
H      1.185965721145     0.946155190699    -3.689543327638
H      0.269709488843    -0.796039910352    -5.166378808393
H     -1.623859413917    -2.206983648765    -4.431362858707
H     -2.572928961166    -1.803289914115    -2.150807134874
O     -1.689011145107    -0.009246336209    -0.520993679878
H     -1.062469261358    -0.835585858779     0.631972204732

