# STO-3G

title

0 1
C     -0.507235003923     3.492203722382     0.631604896056
C     -1.403097472313     3.933887989252     1.640195731610
C     -2.684067481475     4.418683350264     1.323083912648
C     -3.103826594251     4.485511662033    -0.019953337268
C     -2.219849833166     4.069093788710    -1.036928819681
C     -0.940635764740     3.579216286127    -0.718471027377
H      0.109561542822     0.726199694015    -0.707519251041
H     -1.085414724311     3.901121493282     2.681215716128
H     -3.347518192003     4.751306548130     2.117819791032
H     -4.090826800336     4.865446316017    -0.270546624745
H     -2.522950667222     4.134051971556    -2.079411519340
H     -0.280441364552     3.274643267336    -1.525028258322
C      0.831890351905     2.992221741384     1.033797641410
H      1.084619206857     3.191117558600     2.075931614790
H     -2.055942236889     1.456570425852     0.099311567958
C      1.876200950454     2.660138876137     0.136339763042
H      1.715325208007     2.695156844529    -0.931832788582
C      3.284837435819     2.561963798131     0.538306281802
O      3.525835427749     2.092503367796     1.682691817488
O      4.264313818926     2.559546020987    -0.465721034887
C      5.600930722356     2.254999223792    -0.042753573789
H      6.282543970783     2.300697751449    -0.919961928318
H      5.956929387455     2.991908030259     0.712432471860
H      5.658133638362     1.227203844268     0.382781367599
Pd     1.109921420441     0.795223955446     0.999973677126
C     -1.070219538985     0.045225123633    -2.255215269205
O      0.098496964157     0.570564874670    -1.727084197969
O     -1.161058883063    -0.210063460536    -3.458274868109
C     -2.211353020256    -0.214584546980    -1.225343925921
H     -2.218555614720    -1.297426903850    -1.040590479709
C     -3.562408419894     0.197340078169    -1.767594242280
H     -4.352166133937    -0.057657910440    -1.031067600955
H     -3.572160942381     1.293309592747    -1.938474690309
H     -3.774197235002    -0.329731940747    -2.721240103706
N     -2.025062270133     0.442174833863     0.063773776613
C     -1.812723697017    -0.273917422040     1.207595720629
O     -1.634043849277    -1.511888169409     1.258711300003
C     -1.850216542599     0.506582750184     2.460722022643
H     -1.051994704278     1.259829738833     2.439079843042
H     -2.835922694381     1.002265011555     2.508769736741
H     -1.727477290501    -0.178557447716     3.319052432320
N      1.532689085161    -1.282700835586     0.728984449347
C      1.348171617019    -2.136670630000     1.786050822100
C      1.930213315332    -3.388143657988     1.773970475994
C      2.670379399428    -3.804772155248     0.689264839215
C      2.806135097743    -2.946372975585    -0.369741379104
C      2.186855909634    -1.681306580071    -0.316889699783
H      0.774290620238    -1.814526578265     2.647225903177
H      1.786486078919    -4.048247433328     2.613797827675
H      3.121961197884    -4.793144929481     0.668175893120
H      3.340835921515    -3.218079157816    -1.258578070812
O      2.339771933242    -0.967790407436    -1.433973296562
H      1.680752932377    -0.231830327401    -1.561928333955

