# STO-3G

title

0 1
C      1.918451357679     1.835287045839     0.235178976983
C      3.323936981154     1.710781247240     0.234624997377
C      4.114205447767     2.681191803476    -0.415114653130
C      3.506532303554     3.775511259665    -1.061628393611
C      2.104051207422     3.894904793348    -1.059460235158
C      1.305991213122     2.928330277395    -0.409317288322
H     -2.248582535638    -1.088103232051    -0.541884581965
H      3.806709076740     0.867769297831     0.726412047816
H      5.197026492079     2.577527279709    -0.413731743895
H      4.117434107848     4.523360292971    -1.561008551894
H      1.625026488256     4.734410505536    -1.558451544261
H      0.223585410584     3.031898950274    -0.426170364780
C     -0.319123606236     1.703140687361     2.387331306920
H     -0.430232299506     2.668962491150     1.903382985453
H     -1.216780478971     1.097260347625     2.467516190876
C      0.838395770581     1.366909892150     3.110265791265
H      0.835450142528     0.457351720396     3.695460574433
C      1.953225860601     2.293336044179     3.372204214751
O      2.989830823597     1.846027237650     3.927533222480
O      1.889563609294     3.610245030628     2.885051311649
C      3.091299771648     4.383351041735     3.004074356516
H      2.919242782089     5.396170467806     2.580742050821
H      3.387824889260     4.495328025342     4.071567240366
H      3.922203748316     3.909685895537     2.433542370022
Pd     0.897753792483     0.366212298647     1.110155156740
C     -0.878403708908    -2.036846334017     1.391062999697
O     -0.282124600281    -2.664537601302     0.407416427671
O     -0.258813776493    -1.209670204038     2.161444786527
C     -2.421168671851    -2.015330774311     1.385657623201
H     -2.803852201575    -1.691563055096     2.355637429056
C     -3.069484415361    -3.307171856145     0.949047362968
H     -4.171545145649    -3.181815740044     0.949041594465
H     -2.741205818997    -3.555667961686    -0.082112138966
H     -2.789189971886    -4.128358885721     1.639237141399
N     -2.711636809210    -0.977120715334     0.377950820001
C     -3.134763323992     0.254924866811     0.764144766293
O     -3.379337447943     0.612198800185     1.944533782527
C     -3.307674433916     1.229271358984    -0.333733582391
H     -3.682398444512     2.178549573324     0.086800999156
H     -2.328968999313     1.371055919891    -0.819307910338
H     -4.035720697369     0.806381461257    -1.047466636810
N     -0.913137609484    -0.694438347929    -2.004467125296
C     -1.471519761500    -0.253203716711    -3.173722788209
C     -0.719308567840     0.495881389576    -4.061313013188
C      0.602979004333     0.780225324112    -3.790577703996
C      1.144920119700     0.299463807376    -2.627557507656
C      0.330020017746    -0.455794710392    -1.755936225891
H     -2.511983262522    -0.469087651921    -3.386519389572
H     -1.172324235554     0.849086828032    -4.972702158181
H      1.201644779812     1.364343835484    -4.484305152465
H      2.168140035999     0.473434380822    -2.360272502606
O      0.948630127356    -0.908493299836    -0.640870022522
H      0.455838381256    -1.898300044483    -0.167489913834

