# STO-3G

title

0 1
C      0.985886784370     2.936125874406    -1.515542859087
C      2.352258697247     3.228976896671    -1.338445673419
C      2.959731760577     4.230262110968    -2.124946299400
C      2.212345112316     4.934487397750    -3.089408783060
C      0.848523665039     4.633338379376    -3.268170035702
C      0.231602886506     3.639351880802    -2.478689019804
H     -2.463844531289    -0.936202246088     3.270564824044
H      2.941555085580     2.657362692644    -0.629686940634
H      4.016542568848     4.450971789174    -1.988372528056
H      2.685833942233     5.703117577880    -3.696077352843
H      0.262335072335     5.164882386071    -4.015322148785
H     -0.824017961131     3.416698899188    -2.629500676577
C      0.438480486808     2.545160240591     1.440180993841
H      0.394024176215     1.731246512486     2.158225626905
H      1.417653066757     2.980421952743     1.275524978091
C     -0.708992921241     3.158206437629     0.908404136228
H     -0.601169493439     4.041121175926     0.296603288927
C     -2.086975959420     2.881739797084     1.350525621461
O     -3.036349649089     3.367805222932     0.681726231426
O     -2.312722221128     2.227755113538     2.573557656613
C     -3.676870048403     1.885815345198     2.853433162805
H     -3.733124373809     1.367551843393     3.833944679175
H     -4.314361616376     2.797463020326     2.903742543477
H     -4.073447510751     1.193034413241     2.076869130146
Pd     0.015764074005     1.545501598770    -0.467120458359
C     -0.988630500111    -1.126971856321     0.638914568963
O     -0.513448231981    -1.739551735641    -0.417322378473
O     -1.198530783913     0.129929326755     0.693205759352
C     -1.232990135868    -1.998149786114     1.888915553347
H     -0.301204375100    -2.554454527221     2.044437259569
C     -2.366300214926    -2.985149763945     1.707943218257
H     -2.465558144023    -3.603651023050     2.623994438385
H     -3.314786731786    -2.435575398665     1.541506644875
H     -2.163643408432    -3.648997414538     0.842081196332
N     -1.505180818502    -1.183268705397     3.065472269095
C     -0.494170066967    -0.447754657022     3.614224212525
O      0.678155046698    -0.427566890437     3.170778436907
C     -0.815325677061     0.336878737362     4.827201746346
H     -0.691206639014     1.403011330636     4.575703841198
H     -1.848981409007     0.135269044626     5.151182620292
H     -0.106062151636     0.039800973618     5.618224227298
N      2.756951325285     0.086747851646    -1.365149595880
C      4.044598331646    -0.221884206426    -1.715618837199
C      4.294052963634    -0.961757076385    -2.858242307597
C      3.251697974402    -1.395111555645    -3.651072885230
C      1.973144841952    -1.073797057152    -3.274670286871
C      1.782463671551    -0.309205941459    -2.099931626019
H      4.866188248496     0.115357176419    -1.094676796203
H      5.310492173931    -1.198482110854    -3.125157720077
H      3.439310018970    -1.975903147846    -4.550152250938
H      1.116508910964    -1.370357122645    -3.844422486023
O      0.486819701440    -0.044446711886    -1.797617017071
H     -0.073682745643    -1.001813407194    -1.195519408131

