# STO-3G

title

0 1
C      1.868255303512     1.906703054277     0.104907424639
C      3.276336297858     1.832450846086     0.161334758286
C      4.057531419725     2.707725525270    -0.621023438681
C      3.438316364488     3.657511261422    -1.457240711245
C      2.033484254396     3.726475565262    -1.512284002644
C      1.244619691927     2.854582982963    -0.730355949449
H     -2.200827790557    -1.277613741972    -0.264006442463
H      3.767817736037     1.100258186444     0.799983961834
H      5.142393456677     2.643060222089    -0.574302880348
H      4.042234614328     4.332514444407    -2.058518133240
H      1.545758348596     4.453343848747    -2.158031780787
H      0.160735303132     2.914121322734    -0.793672028139
C     -0.399216898081     2.074104222661     2.212531709374
H     -0.506506423930     2.951606656867     1.581755378968
H     -1.293430750488     1.476526881928     2.365754001023
C      0.744282553295     1.870649112795     3.003841393334
H      0.738393670906     1.061749704514     3.721709452878
C      1.843668671599     2.841133515188     3.142468229897
O      2.871613770064     2.498905343118     3.782231320798
O      1.778267969018     4.066249700747     2.456614927231
C      2.966858533432     4.867780378380     2.487072365538
H      2.795140625444     5.800584429734     1.908303843482
H      3.231071257946     5.147205482372     3.532129332880
H      3.819573881680     4.325564796514     2.018999522036
Pd     0.862640725122     0.571133196659     1.187395191783
C     -0.834445321243    -1.812195901744     1.832857604428
O     -0.195397235620    -2.577600161495     0.984649761075
O     -0.258481543703    -0.848100746488     2.467668572572
C     -2.376358937162    -1.843334052814     1.793025134765
H     -2.789769892821    -1.364701150971     2.682777998839
C     -2.974211867759    -3.214279313093     1.585068913901
H     -4.079293406205    -3.129126017453     1.542500211709
H     -2.613737352135    -3.632739139380     0.621861632343
H     -2.685590116370    -3.887902757405     2.417040201617
N     -2.683331293003    -1.012921298524     0.610905964196
C     -3.139501812960     0.257903919648     0.776511101106
O     -3.366028166454     0.811305945355     1.883290568371
C     -3.395417900352     1.034782805139    -0.456207013857
H     -4.446372623526     1.367215431028    -0.422192750313
H     -2.716077608378     1.900724317411    -0.455024363367
H     -3.230071963385     0.410208284442    -1.350124534893
N     -0.783561411598    -1.101531259252    -1.772476397954
C     -1.293832720534    -0.906611503881    -3.027723998114
C     -0.526917734420    -0.290051137498    -4.000804978400
C      0.763987380304     0.109102184763    -3.724282929294
C      1.261066646857    -0.127519678326    -2.469714381668
C      0.432096671443    -0.757057078833    -1.515214993176
H     -2.309139583338    -1.214741767719    -3.248248111838
H     -0.943440638678    -0.130615143232    -4.981430096483
H      1.374199522317     0.590637316980    -4.483628065462
H      2.260043362185     0.143085002515    -2.191744191783
O      1.011118048314    -0.976922815329    -0.310710157733
H      0.540538389065    -1.884663942607     0.299434246877

