# STO-3G

title

0 1
C      0.740036133299     3.186225182119    -0.385017201427
C      1.818470086592     4.093778174712    -0.440721379962
C      1.746958258439     5.217759584437    -1.289717214083
C      0.601719005243     5.440868463385    -2.079263660979
C     -0.472514284581     4.533141665676    -2.020405276029
C     -0.408289689330     3.406389455785    -1.172117389895
H     -0.588284574172    -1.638634417074    -0.455369143903
H      2.712660000425     3.930133713543     0.158354250249
H      2.583508756904     5.911943693336    -1.330511612141
H      0.548527230954     6.309136149147    -2.731331166616
H     -1.358452023082     4.693293668146    -2.630893807335
H     -1.238896663052     2.704705366542    -1.154000154828
C     -0.820976367319     2.058323390611     1.986225653546
H     -1.149686071106     1.103690890023     2.386685086484
H     -1.489262561293     2.530755859255     1.273031552332
C      0.265514124363     2.772510800236     2.517620057752
H      0.451358370630     3.780931948402     2.178131738123
C      1.009247762568     2.380440132738     3.728905833470
O      2.041362955750     3.034545672979     4.031257796339
O      0.530157391145     1.344293723669     4.547786873098
C      1.347997475154     1.005318286509     5.675668436699
H      0.869164932761     0.175483046802     6.238702397574
H      2.354694768605     0.663859952537     5.343982304615
H      1.456583633331     1.874907757829     6.362690687296
Pd     0.956411367680     1.571723100981     0.765164604539
C      1.070472723224    -1.324186151727     1.455639092194
O      1.904904580893    -1.613741541084     0.479435623412
O      1.108396697397    -0.201856417498     2.079247228443
C     -0.188101814906    -2.205709642492     1.580383877240
H     -0.690008200218    -2.022870556945     2.532744878451
C      0.049851483250    -3.681297195836     1.366109714956
H     -0.914526504009    -4.222938785835     1.448848751955
H      0.462096849011    -3.845130134768     0.348318771934
H      0.759454715783    -4.068559651684     2.124848256091
N     -1.031292063274    -1.698613971050     0.480356072702
C     -2.127216913244    -0.940602640392     0.746335343043
O     -2.559615723654    -0.644691258481     1.888829896368
C     -2.848193120037    -0.446929470652    -0.445921082031
H     -3.728494847584     0.131941783017    -0.116899468568
H     -2.154409049904     0.180235123340    -1.027335721933
H     -3.160077498452    -1.325481256585    -1.036813289536
N      0.224408888567    -0.745688463716    -2.064934022470
C     -0.447255307976    -0.911340487850    -3.245940327134
C     -0.246872524204    -0.022792856662    -4.287518317438
C      0.649588066975     1.017313161961    -4.156601950425
C      1.332339458101     1.140620008027    -2.975065808618
C      1.084358614845     0.209591621971    -1.942355899278
H     -1.156777999494    -1.723803725320    -3.350280003135
H     -0.790653536718    -0.154699292660    -5.208115543511
H      0.814829833365     1.717402085660    -4.971076092047
H      2.047590851155     1.920607717260    -2.806956199038
O      1.811554057679     0.389321689735    -0.817480519351
H      2.042960367879    -0.667358358866    -0.192673282491

