# STO-3G

title

0 1
C     -0.184605813267     2.513232649983    -1.295569286888
C      0.943399766723     3.355512640528    -1.308545495565
C      0.975050492873     4.466317386358    -2.177605074646
C     -0.108666640692     4.735050606735    -3.036656441495
C     -1.229711251578     3.883366425091    -3.028188142095
C     -1.272053124974     2.775177036961    -2.155525771419
H     -1.449538848699    -2.090779885720     3.815830863646
H      1.796942511207     3.137106151567    -0.675968702260
H      1.849407345886     5.114170100107    -2.184993877718
H     -0.076879664817     5.590493045987    -3.707567804831
H     -2.069402892299     4.073284728148    -3.693877323272
H     -2.146806533617     2.125644150950    -2.160112629043
C      0.133617632152     1.978988430122     1.734686910269
H      0.801726871942     2.800835743286     1.500208241002
H      0.578951290552     1.135683845698     2.256654629576
C     -1.260480828083     2.099228919060     1.594732893795
H     -1.895022254627     1.309482961984     1.974722972151
C     -1.951985888963     3.344609101677     1.220413355504
O     -3.197020826149     3.313132201442     1.039804495201
O     -1.208493396983     4.519613573143     1.016671268172
C     -1.924047837255     5.624199900131     0.447951460841
H     -1.231377952455     6.483801455132     0.322468988729
H     -2.324419451455     5.357538792036    -0.556528726443
H     -2.760163464831     5.940764858761     1.111650990085
Pd    -0.400884769790     0.923718086139    -0.119099308799
C     -0.339657600660    -1.917972214971     1.053090147536
O      0.097230854802    -2.379975835987    -0.087113538949
O     -0.886136560964    -0.770343562196     1.193072000911
C     -0.111950799607    -2.783917050476     2.312228548428
H      0.962914132582    -2.997427851061     2.336709023705
C     -0.871322742965    -4.092481420431     2.279688911484
H     -0.639490865933    -4.675193116343     3.195233776053
H     -1.961193647417    -3.890068945568     2.250518019249
H     -0.578704296131    -4.684746186712     1.388068644864
N     -0.483050319497    -2.054046915533     3.518694220627
C      0.310231453398    -1.032850349606     3.950125746458
O      1.384698056008    -0.695924036198     3.398786790823
C     -0.143811284509    -0.287426316746     5.145376740194
H     -0.320680520078     0.757012431490     4.840684920108
H     -1.066937471420    -0.733928039188     5.551841575405
H      0.661766548494    -0.338065804466     5.897833209512
N      2.415364554033     0.465536625078    -1.445691300867
C      3.683896527726     0.595388491956    -1.945573662474
C      4.069861172687    -0.136583599760    -3.055033634743
C      3.183190468507    -0.999345686373    -3.665715389701
C      1.919540447359    -1.107461474880    -3.144385735727
C      1.583876402971    -0.328269613935    -2.012894941623
H      4.383945112567     1.270193087549    -1.467150198166
H      5.070288942816    -0.028378968962    -3.439706439035
H      3.478285625007    -1.576606620465    -4.537817775808
H      1.176553570402    -1.749046379425    -3.572001899310
O      0.314361397927    -0.493272142470    -1.557598987503
H      0.168235060982    -1.528793097358    -0.929549506732

