# STO-3G

title

0 1
C      0.856206097552     2.505930031440    -1.531903435443
C      1.885923039475     3.375674422140    -1.961043298074
C      1.767047733491     4.090344940414    -3.172646773015
C      0.620454806437     3.945697655490    -3.975343724233
C     -0.399147799167     3.063885356757    -3.566901704900
C     -0.278542839649     2.342715123384    -2.361428306157
H     -3.211154296655     0.824489504589     3.131757672614
H      2.795085998209     3.497894493159    -1.375600186297
H      2.570813810915     4.754380359800    -3.485753646078
H      0.527847467333     4.498408138090    -4.907525547452
H     -1.280717937712     2.922493880175    -4.189812947804
H     -1.053075094513     1.626377559415    -2.096106869843
C      1.541594563124     3.252713769501     1.367876158923
H      2.084869990524     2.830149637427     2.207454490911
H      2.106500457571     3.799534119019     0.624391792955
C      0.148903717673     3.283903488568     1.359815577170
H     -0.374708506835     3.795534427277     0.563730269988
C     -0.674660368085     2.967044745744     2.539966545063
O     -1.923386807251     3.086171598949     2.432884202813
O     -0.057210563156     2.818179090493     3.793670704046
C     -0.921757782461     2.495544056285     4.890957487460
H     -0.319951195877     2.425060621762     5.822187592844
H     -1.697218162609     3.281238176102     5.035028156694
H     -1.411630487014     1.510115936972     4.730980227861
Pd     0.959867797670     1.460966900407     0.181951550341
C      0.957875335680    -0.699232424261     2.589444678791
O      1.138841363826     0.484509185124     2.062874056759
O      1.693284437319    -1.274534111174     3.428942503521
C     -0.390231301579    -1.463755948205     2.198052107680
H     -0.928403868740    -1.597750563070     3.142201739362
C     -0.120627076497    -2.822891388079     1.591125118583
H     -1.080143242879    -3.306891809762     1.313787921209
H      0.510108789232    -2.719929895635     0.686774736189
H      0.407130206014    -3.466303889349     2.325647396756
N     -1.218053154487    -0.710767630189     1.250982389706
C     -2.204809815198     0.025101350849     1.604832146946
O     -2.564102743164     0.130451082169     2.906104999730
C     -2.963336304583     0.732617525166     0.558226957156
H     -2.287896510169     1.449331692224     0.065854201620
H     -3.331612111223    -0.017046610788    -0.164376088995
H     -3.813467946975     1.275509813299     1.008174221180
N      1.485874570288    -0.152736218363    -1.022767720718
C      2.786996640330    -0.243126229474    -1.434698598297
C      3.142891338429    -1.162438162301    -2.398774627370
C      2.197945980453    -1.997377233297    -2.953233222049
C      0.903140261527    -1.897187343864    -2.517345578395
C      0.568212991371    -0.945811928933    -1.526738923154
H      3.535094495153     0.413577966065    -1.006271211737
H      4.169617129032    -1.224008762814    -2.720233348214
H      2.474054536575    -2.722117144321    -3.714537960994
H      0.122249565263    -2.521188194014    -2.902588826826
O     -0.676866159794    -0.933051677717    -1.151921462793
H     -0.948772311586    -0.758218124797     0.110357024986

