# STO-3G

title

0 1
C      0.725742826984     2.538735709615    -0.526164392134
C      1.564668045061     3.675061864353    -0.461949540611
C      1.347993746651     4.777341206987    -1.316882916598
C      0.292627994989     4.760035169082    -2.247634543766
C     -0.535894301450     3.623724330774    -2.329149424071
C     -0.315160070477     2.517565589921    -1.483694136902
H     -2.578778892896    -0.178575357120     3.511049240739
H      2.387036984453     3.721109593281     0.248957589610
H      2.003352943680     5.643898686542    -1.250378483098
H      0.125562979212     5.609756047329    -2.905695293623
H     -1.343914039244     3.587581325335    -3.057935952068
H     -0.940382161954     1.633936782882    -1.595954907277
C      1.366013745965     2.102706337379     2.603783463650
H      1.893729594950     3.022696867874     2.377181060178
H      1.920229466486     1.294841627161     3.069118213563
C     -0.016373117320     2.006175300505     2.489307797552
H     -0.501142650036     1.116145669349     2.864306862381
C     -0.902571714990     3.130030652441     2.139734373093
O     -2.128044400709     2.901501681010     1.967917490635
O     -0.354906586308     4.405070342157     1.916512646616
C     -1.244111358560     5.377830528520     1.351203287845
H     -0.700007044376     6.336593795472     1.213195386773
H     -1.608124046554     5.043404591626     0.352712049626
H     -2.112653241995     5.561696503754     2.023487106790
Pd     0.999262701164     0.960475932915     0.679202821732
C      1.307541378475    -1.914249443806     2.232421935860
O      1.430081501414    -0.623090875124     2.059723934569
O      2.154821765861    -2.691893538030     2.735319692772
C     -0.116673849479    -2.540607665921     1.870290825112
H     -0.553682405068    -2.831257885546     2.832667864229
C      0.000898502544    -3.764764433004     0.989692065446
H     -1.010265135214    -4.164839382456     0.767979931205
H      0.503047053550    -3.501447893735     0.036963326794
H      0.592123247435    -4.549268891698     1.506349947695
N     -0.996805507726    -1.595949488221     1.181904553278
C     -1.850206058669    -0.844063513088     1.768863298843
O     -1.977528886953    -0.839004311884     3.119473471194
C     -2.720163903871     0.000615798810     0.933168091717
H     -2.092834954482     0.706892467987     0.368008819078
H     -3.268292953650    -0.660436677575     0.239263561940
H     -3.435113222024     0.560171434501     1.562525910041
N      1.515935670719    -0.083399167143    -1.033233087146
C      2.742520789268     0.198546933594    -1.570434420760
C      3.119144392917    -0.368507922166    -2.768902443492
C      2.270003787359    -1.222088312985    -3.435976367612
C      1.049613126659    -1.494775112740    -2.877569271025
C      0.690361398046    -0.902385880598    -1.644287407308
H      3.415190574508     0.873123715842    -1.053663228697
H      4.086222655958    -0.137849917134    -3.184524142549
H      2.561883918797    -1.670345423653    -4.381967497193
H      0.345210553202    -2.152149994399    -3.345950838514
O     -0.485052460804    -1.233079810368    -1.198851985031
H     -0.774426004739    -1.392752066754     0.031967314526

