# STO-3G

title

0 1
C      2.427529396283     2.615041673619     1.016400488248
C      3.421722249725     3.125028636369     0.152818266190
C      4.070296613500     4.340389521532     0.442840656322
C      3.728585583304     5.061907870140     1.602752998933
C      2.735984025789     4.560260296566     2.468883266825
C      2.086748528559     3.346564167683     2.178727368446
H      1.227841650347    -1.047628023412     0.713234257942
H      3.695975889203     2.568368250471    -0.742783793560
H      4.836956198312     4.720139368381    -0.229001281925
H      4.228610938813     6.001067758466     1.828462324330
H      2.469800985063     5.114565069567     3.366036135791
H      1.314554826242     2.960219617892     2.840036480746
C      1.703983817486     1.313721472808     0.701082873303
H      2.377180012644     0.642929053976     0.150012343826
H      1.412795644985     0.839202008951     1.635227814747
C      0.466486216192     1.566030944669    -0.189450060910
H      0.813325278435     1.740689790793    -1.208854155886
C     -0.543224045490     2.577229956799     0.180177830580
O     -0.415172403053     3.734380569569    -0.298545887355
O     -1.839672997704     2.065094014076     0.373324466737
C     -2.812519613318     3.027752386833     0.801632908079
H     -3.788218517083     2.522150844648     0.962895545360
H     -2.502969205376     3.493663023337     1.765582031467
H     -2.953901635197     3.823154941882     0.034470568100
Pd    -0.815885160845    -0.076193708179    -0.292226800949
C      0.541787204161    -2.862580815030     0.581868758492
O      1.466346048242    -1.878899220900     0.215712588588
O      0.637216161930    -4.017673767747     0.169576106224
C     -0.565584330886    -2.331938134678     1.551256323024
H     -0.355958520816    -2.841525102366     2.505965890872
C     -1.947445270834    -2.755049104212     1.099852207645
H     -2.706626286943    -2.370280095174     1.811895252484
H     -2.162974690395    -2.349824646807     0.091433849301
H     -2.016847620541    -3.863337136410     1.065727142143
N     -0.525240031063    -0.858693878506     1.617598708492
C     -0.582567137101    -0.110598764200     2.751967022006
O     -0.535270012478     1.153081792238     2.757217352870
C     -0.640653871128    -0.794408899914     4.069420796807
H      0.289464733401    -1.371626745561     4.205581732183
H     -0.703328985061    -0.021312380394     4.857353419664
H     -1.541013306026    -1.430763480460     4.106382305938
N     -0.882373054279     0.259394001495    -2.323358065538
C     -1.877595616212     0.991182874637    -2.916126182135
C     -1.858588740133     1.199441009996    -4.279570526780
C     -0.839656413694     0.685311605812    -5.052870954337
C      0.145974336416    -0.036670190285    -4.431556627306
C      0.089979705228    -0.226775564482    -3.037487271320
H     -2.679260873981     1.402177569591    -2.313091424978
H     -2.642518053662     1.779409746524    -4.739453460316
H     -0.815910471449     0.852162699988    -6.126705449498
H      0.972014886666    -0.455588394272    -4.972701376961
O      1.114300164787    -0.916937022779    -2.550085217312
H      1.105733294208    -1.127045169688    -1.574773866815

