# STO-3G

title

0 1
C      0.280208791075     3.163210050131     1.506824096062
C      1.210371455961     3.241937145461     0.423127156778
C      0.996580451521     4.166931247362    -0.639654075139
C     -0.092876734990     5.039961255008    -0.595165743616
C     -0.999400742502     4.996417734292     0.499471812690
C     -0.829736532430     4.060664280601     1.521989210872
H     -3.200942945488     0.024745305718    -0.583688272381
H      2.149433218812     2.691583706993     0.456732796921
H      1.682335125220     4.145555205325    -1.479801407861
H     -0.251813852088     5.752639732476    -1.400365418000
H     -1.835083122555     5.691335873241     0.534987109900
H     -1.530391467298     4.012638983974     2.352179937155
C      0.525671459202     2.183540564403     2.661250788384
H      1.558901140890     2.269595914559     3.012485823388
H     -0.150743748628     2.407715208437     3.489717418928
C      0.200841361700     0.789974259318     2.091909411415
H     -0.778132079795     0.432918434012     2.385530606995
C      1.224371652709    -0.269512049327     2.034151954657
O      0.849912963476    -1.467011724511     2.107741968956
O      2.482723299505     0.069906626577     1.512392808844
C      3.356915754661    -1.027757562665     1.214337297931
H      4.311775331981    -0.636317722029     0.800670296572
H      3.586542346820    -1.613613881920     2.133205834524
H      2.902231557729    -1.700871384758     0.451440393363
Pd    -0.014079574508     1.283212772051     0.102465359338
C     -1.233731893356    -1.678217172407    -0.311413232633
O     -0.531143033612    -0.594268050383    -0.677308123767
O     -1.052139005169    -2.810145675191    -0.807932751338
C     -2.348708455707    -1.375181281602     0.742304264791
H     -1.891676956801    -1.264352934347     1.731331962722
C     -3.400348242115    -2.459914289180     0.816676987432
H     -4.157468848635    -2.192497680068     1.582515606360
H     -3.901855173629    -2.555038803759    -0.167951321807
H     -2.932872697646    -3.428634153147     1.089878350336
N     -3.024022706279    -0.114455620708     0.403401081871
C     -3.254450584245     0.883808972634     1.291218635033
O     -2.876791085033     0.885205564207     2.490831078628
C     -4.014933514616     2.052163062071     0.792983929127
H     -4.900625502347     2.167125178965     1.440308347083
H     -3.366797052947     2.937650248233     0.874262343467
H     -4.334778443866     1.906031081754    -0.253817475253
N      2.739157170802     1.818624600541    -2.278920970939
C      4.099787524722     1.691679348784    -2.355416447935
C      4.676261972607     0.436392534211    -2.435851535563
C      3.888235250471    -0.694130451639    -2.462431439179
C      2.527707547594    -0.540283640759    -2.389946537609
C      1.995252843829     0.774980999138    -2.305627514864
H      4.723703730999     2.577647548732    -2.339429833917
H      5.748688527875     0.349575719216    -2.496007931890
H      4.334344291438    -1.682233863583    -2.540503827061
H      1.871289693093    -1.388938208541    -2.423206675154
O      0.636692727182     0.884129367063    -2.255564801191
H      0.155828061088     0.043702696749    -1.939576421887

