# STO-3G

title

0 1
C      1.289266018143    -3.047360501158     0.830539641747
C      0.573531406400    -4.201580042256     1.215250403397
C      0.931062550231    -4.907060674435     2.381480216726
C      2.009426831885    -4.462881207006     3.173358125190
C      2.734545059253    -3.316508781462     2.791465890626
C      2.378049293479    -2.611392899621     1.620896306769
H      1.017608913244    -2.518823708266    -0.082328700578
H     -0.246022537376    -4.558356794723     0.595845720612
H      0.377355119875    -5.798231047790     2.667813454008
H      2.285776008237    -5.006770791661     4.073366500347
H      3.576116714292    -2.977958145063     3.391164040775
H      2.956226609661    -1.743199593144     1.310628082511
C     -1.971019578481     0.153602106057     0.687465145404
H     -2.430285700868     0.784558257833    -0.065879205306
H     -1.905734484783     0.567694245973     1.690217998147
C     -1.748530780538    -1.202338915513     0.464288928348
H     -1.414628354003    -1.829283648901     1.278726841683
C     -2.192886983532    -1.929135797590    -0.738910980607
O     -2.800473648653    -1.308379668476    -1.655089702266
O     -2.149537531986    -3.333947009362    -0.719674310681
C     -2.468832297081    -3.979614666408    -1.959219736582
H     -2.380225739372    -5.079873749478    -1.834722939036
H     -3.511643041833    -3.746133576581    -2.272188356666
H     -1.759682466591    -3.662874540281    -2.758235528624
Pd     0.228437067384     0.160036477477     0.272262862503
C      1.958161143359     2.084832871548    -0.930884730295
O      1.949916850572     1.209329235118     0.111892821603
O      2.850548883477     2.930702562866    -1.110091631926
C      0.717281646200     1.926642924963    -1.879915861319
H      1.061729170075     2.100185405675    -2.907174212397
C     -0.365295686632     2.932625555699    -1.562589400162
H     -1.225954693667     2.775602686805    -2.245715330328
H     -0.710298497249     2.799157605211    -0.518203748161
H      0.021773576904     3.964767232973    -1.694458169979
N      0.158194186597     0.582942826843    -1.660388813448
C      0.270409278781    -0.499719247141    -2.461818903747
O      0.246429373693    -1.692594859445    -2.031923073788
C      0.350819106698    -0.274776898281    -3.922770761229
H     -0.488329229597     0.380209920912    -4.214131314379
H      1.329466152256     0.171611222048    -4.159638782578
H      0.257733670581    -1.250452349466    -4.434045219946
N     -0.314154093902    -0.123751791070     4.460614026550
C     -0.732936227349     0.660080189695     5.502674557048
C     -0.693167310284     2.040577305580     5.385270818091
C     -0.217853434160     2.631885210766     4.230336656831
C      0.190883295785     1.815590566638     3.205103522027
C      0.119395178975     0.420920325932     3.397385011419
H     -1.099834096593     0.198412357149     6.412041760657
H     -1.020656537505     2.652152014221     6.210163428159
H     -0.160066599432     3.713574513034     4.140305814532
H      0.622776135523     2.202392343519     2.302545926571
O      0.558207262727    -0.317054832084     2.330843048587
H      0.816832562019    -1.247752347613     2.527618671072

