# STO-3G

title

0 1
C      0.092448327958     0.930880450823     1.206350985109
C     -0.062560308521     2.262442532533     1.643950323062
C      0.843792791072     2.815605810864     2.570604684846
C      1.906102550766     2.034288354635     3.068864668723
C      2.063384764873     0.702877703130     2.633349513600
C      1.160053497736     0.152949667726     1.701533715085
H     -0.617414884506     0.507384825764     0.502139158938
H     -0.887685596861     2.862981580028     1.265799951656
H      0.717250642532     3.842335228976     2.906755158529
H      2.600131322356     2.456557258945     3.792254746046
H      2.881891966018     0.095775993985     3.013215577258
H      1.297521365722    -0.866840918601     1.351813570593
C     -1.192582182930     0.543992132281    -3.316053947577
H     -0.751646980643     0.619308411328    -4.307916529753
H     -1.979544359640    -0.186631260486    -3.173515372398
C     -0.972551159163     1.499106056895    -2.328357492682
H     -1.547773017000     1.419288030768    -1.420320363243
C     -0.161090491021     2.716644795762    -2.505910195263
O      0.309591511917     3.000380984064    -3.641496466658
O      0.048636365077     3.552320185303    -1.396241846746
C      0.933943238486     4.661016125983    -1.604764238583
H      1.031448723199     5.235863636431    -0.658858599561
H      1.947916803025     4.306954663254    -1.900634610376
H      0.535954223018     5.343804323471    -2.389329671726
Pd     0.391286605295    -0.406440669362    -2.008113635875
C      1.295079270546    -2.976686583886    -1.121992676394
O      1.767997670404    -1.741036908635    -1.416459272375
O      2.015450636798    -3.914231888274    -0.737302239683
C     -0.239908656836    -3.118537764076    -1.343699958308
H     -0.604380320240    -3.812540801125    -0.576042591342
C     -0.544312509832    -3.700114532242    -2.708975940474
H     -1.640139865042    -3.808516659347    -2.838538017988
H     -0.156344443337    -3.023899082380    -3.497838986782
H     -0.067068528780    -4.697359215937    -2.814261645748
N     -0.864890782580    -1.779842536272    -1.271583875122
C     -2.043302886810    -1.445594361539    -0.709752657881
O     -2.513796171020    -0.268762108087    -0.680459186007
C     -2.850687205534    -2.519040036412    -0.080459457356
H     -3.795605362634    -2.075874696019     0.284479188232
H     -3.073205392049    -3.286901190081    -0.838436331758
H     -2.289801652847    -2.929378356571     0.776826182801
N      4.270498161568     0.785424527804    -2.701841722668
C      5.424455214126     1.034668030931    -2.008038234113
C      5.357937330321     1.571414548709    -0.731268384358
C      4.132369703518     1.849355169596    -0.154648933563
C      3.000147345145     1.591913896724    -0.884831667044
C      3.150575369250     1.036656581099    -2.168597805020
H      6.384574082704     0.814390043175    -2.459755162157
H      6.267387952179     1.760509839499    -0.186080378057
H      4.066125248420     2.265696692219     0.846919798945
H      2.023250668877     1.795317188289    -0.501408007716
O      1.968237105100     0.791743593345    -2.846037271853
H      2.173506158663     0.531067955822    -3.769336253905

