# STO-3G

title

0 1
C      2.310522680239    -0.118876157252     0.351514439819
C      2.683635203865     0.147346245855    -0.981682116181
C      3.415084877183    -0.814714235169    -1.705683845743
C      3.770891061142    -2.037868620961    -1.101435021022
C      3.395674239383    -2.301923781629     0.231005520208
C      2.666698465194    -1.339520903787     0.957219862836
H      1.749931565411     0.622783218148     0.912501231044
H      2.388760800108     1.085666787096    -1.445672857307
H      3.703596776578    -0.612352406300    -2.734773238219
H      4.334006936881    -2.779455930100    -1.663929570323
H      3.666299740220    -3.247029596438     0.696609855647
H      2.372323312755    -1.544589798275     1.986400924167
C      0.488489368282     3.045591010695     0.869053174550
H      0.899095576800     3.308898341647    -0.098086441408
H      1.143784888663     2.661290519746     1.645622928812
C     -0.842466620292     3.298499206993     1.204735548589
H     -1.171687394006     3.075945466193     2.212651655100
C     -1.826148234544     4.042221614785     0.394604888939
O     -1.529173685379     4.463967404512    -0.753622025402
O     -3.120019812300     4.211727927162     0.917762217081
C     -4.047750726925     4.918004534758     0.081876712616
H     -5.028060015503     4.992134217661     0.600101298341
H     -3.685403194938     5.950371255842    -0.126835143964
H     -4.202690188583     4.378987245422    -0.880211871135
Pd    -0.741890682853     1.126119958507     0.521779926596
C     -2.378686084147    -0.819642335004    -0.739289492680
O     -1.731229981353    -0.629501804254     0.444791671146
O     -3.373397014223    -1.549355757253    -0.870246728658
C     -1.675571194709    -0.094991460309    -1.921636444331
H     -2.439014960233     0.106236551987    -2.685543048617
C     -0.611263967210    -1.016652279161    -2.499209208350
H     -0.113686880400    -0.556329857009    -3.374027867062
H      0.162921290700    -1.217914903241    -1.727658674894
H     -1.066472706134    -1.978159283783    -2.817327469739
N     -1.004985254700     1.153073303451    -1.451910345140
C     -0.396384305603     2.049946251567    -2.272706300576
O      0.625501827706     2.731992809863    -1.976757479849
C     -1.034771302465     2.304519675400    -3.589663207227
H     -0.976591433523     1.405159809050    -4.218439873884
H     -2.078223951202     2.606338806872    -3.398727503427
H     -0.499643877430     3.137235937464    -4.082702874607
N      1.128990868839     1.137269972088     3.510557035872
C      2.179008793465     0.967232060646     4.372199763810
C      2.243493783340    -0.167637168743     5.162895023756
C      1.248585052510    -1.122439868436     5.099762024277
C      0.205733427813    -0.919164286417     4.229556419254
C      0.210812425171     0.260942621883     3.446267574017
H      2.960227219697     1.716578968027     4.425314115526
H      3.075627353065    -0.297013463689     5.835755665556
H      1.290021164880    -2.011042082144     5.724457180323
H     -0.598538710871    -1.621733395267     4.148856454537
O     -0.842978525899     0.444239472935     2.580728187118
H     -1.389254508763    -0.346863639048     2.335367690134

