# STO-3G

title

0 1
C     -1.569700461080     0.289270602051     1.196791035840
C     -1.573017801378     1.670798385854     1.473662446227
C     -1.886181353920     2.135871575630     2.766002822798
C     -2.197408662328     1.216587592455     3.787558546911
C     -2.199275374941    -0.165455711417     3.512157325637
C     -1.888189305424    -0.628358309968     2.217995665983
H     -1.336981247156    -0.058036127019     0.194675700527
H     -1.333249697128     2.376652459531     0.681112436591
H     -1.889565525188     3.204180498619     2.971443131366
H     -2.443664361073     1.574091844580     4.784826902778
H     -2.450417909171    -0.875767153158     4.296529242028
H     -1.911201386732    -1.694829583174     2.007168454857
C      2.224705096641     0.711048277144    -2.006306144422
H      1.946910180527     1.758999525990    -2.086318966169
H      2.650407806819     0.213620191298    -2.870644167852
C      2.255737061510     0.044966249094    -0.780353865869
H      2.674933880083    -0.947457576452    -0.758576152204
C      1.984491701889     0.653101041621     0.532335771661
O      1.626941357456     1.858999949047     0.603147653187
O      2.089879181740    -0.152608369594     1.678358473090
C      1.803842082286     0.491519729290     2.928041452039
H      1.918169526480    -0.240787531717     3.755582305877
H      2.505712305579     1.336543519073     3.109105470116
H      0.758284925893     0.870583666998     2.950268461540
Pd     0.283720713688    -0.403627407948    -1.878752838333
C     -1.696168968797    -2.471568515089    -2.047504189804
O     -1.570959270764    -1.122803028485    -2.172759434515
O     -2.769799920535    -3.077729292347    -2.176864163604
C     -0.350199595850    -3.176215733029    -1.686915209923
H     -0.369221128006    -4.147431382221    -2.197171371485
C     -0.233844436887    -3.416539731870    -0.196103642278
H      0.683342450645    -4.002014364048     0.018375821552
H     -0.159598996655    -2.445661064400     0.334697431965
H     -1.117022972207    -3.977847662717     0.175264638563
N      0.789593366776    -2.324119183313    -2.088694483096
C      1.946572689387    -2.691752965676    -2.681284544467
O      2.881960323844    -1.897958147449    -2.986521706703
C      2.143716793536    -4.131213289158    -2.981536231358
H      2.066708366409    -4.703267001606    -2.042412157598
H      1.386965175453    -4.439658865407    -3.721561440082
H      3.152409324737    -4.267623171267    -3.414401394691
N     -1.556375532654     2.750227055344    -3.652863254256
C     -1.457511801220     3.952596440986    -4.300813569112
C     -0.664031326104     4.956715565477    -3.769618337371
C      0.018140285411     4.755290682671    -2.585077834748
C     -0.108187545849     3.538601862578    -1.963210434711
C     -0.924928611218     2.561055113850    -2.566554497018
H     -1.996536937692     4.112868848418    -5.227293587083
H     -0.588916594973     5.901108077324    -4.283013092125
H      0.632672417105     5.541173567440    -2.153828452729
H      0.368391784969     3.323454472980    -1.026851591177
O     -1.024342528617     1.373071682883    -1.875946635449
H     -1.795210545082     0.822490392417    -2.179644390357

