# STO-3G

title

0 1
C     -0.251903508800    -0.439732831198     1.403414161827
C     -1.198764632541     0.442090513573     1.960691011634
C     -1.585792305637     0.302712319592     3.308376116509
C     -1.025104040838    -0.720949319599     4.097900031572
C     -0.077900598051    -1.603028254567     3.539794019620
C      0.309684045933    -1.464581660486     2.192483849391
H      0.042694999622    -0.343985123950     0.361702250647
H     -1.633458558966     1.232548647835     1.352389758792
H     -2.317060316235     0.983037292724     3.738873703586
H     -1.323094057056    -0.830043147310     5.138332761399
H      0.356232054530    -2.391965115840     4.149670301079
H      1.040991611836    -2.141324976393     1.757043347558
C      3.015434970761    -0.319151202498    -1.921291386448
H      3.418623693350     0.316989098538    -2.707701431777
H      3.188186272595    -1.386957719996    -1.973797883810
C      2.495583500026     0.206570190654    -0.743917034093
H      2.236860363009    -0.483842181327     0.039645491388
C      2.489198644898     1.638948283630    -0.394966186969
O      3.086513009246     2.471711805176    -1.129234686499
O      1.735327333344     2.052762952394     0.715433840662
C      1.705345636794     3.464847018400     0.964057095803
H      1.084852563024     3.665871629954     1.863806480000
H      2.730930852409     3.854697754388     1.155213332426
H      1.257183927536     4.009644150855     0.101857236055
Pd     0.766849585324    -0.300256138563    -2.280890589430
C     -1.560403932425    -1.568430449575    -3.377892745335
O     -0.857527551070    -0.409142007597    -3.435951494236
O     -2.461972674105    -1.861124251485    -4.180897519174
C     -1.169629046664    -2.456914896035    -2.169533666557
H     -1.303932706567    -3.499047601996    -2.486365457581
C     -2.095238480575    -2.175990581244    -0.999165476875
H     -1.785540139009    -2.749237941889    -0.103151814456
H     -2.067195684290    -1.095667365807    -0.750821898425
H     -3.137046492239    -2.455389134593    -1.262609614791
N      0.223616940391    -2.158942386220    -1.747445904675
C      1.047090770757    -2.995264018215    -1.077624691791
O      2.151851190849    -2.655445553034    -0.557733098803
C      0.664618988087    -4.426443867878    -0.970409082563
H     -0.280046249738    -4.511591968362    -0.411645139018
H      0.582872037813    -4.841107346193    -1.988783819593
H      1.459435037556    -4.965585165242    -0.421712650164
N     -0.284922543248     3.428800480806    -3.788952035552
C     -1.326051315747     4.306309924590    -3.649698972275
C     -2.097187720900     4.280634959086    -2.497644453994
C     -1.825195234109     3.368618283336    -1.495666641985
C     -0.771894224150     2.505356445379    -1.670524340497
C     -0.035306406442     2.595724119577    -2.869585714866
H     -1.542015698162     5.018080530888    -4.437912814207
H     -2.917840515611     4.971064105260    -2.394030305467
H     -2.426909772787     3.339054392900    -0.591351924199
H     -0.499349857503     1.785373284977    -0.931311050627
O      1.008429930760     1.698182023705    -2.982819655667
H      1.492375690352     1.846669495058    -3.821938344960

