# STO-3G

title

0 1
C     -0.119075139923    -2.131909313567    -2.940728459506
C      0.925652268488    -2.911104240345    -3.480624389339
C      1.147082097856    -2.923789023741    -4.871129100517
C      0.326948933961    -2.154675954037    -5.723013255203
C     -0.717463075964    -1.378762907010    -5.184561584062
C     -0.946032874809    -1.365912771240    -3.792292189222
H     -0.301382641700    -2.122292622175    -1.867879465160
H      1.552233639567    -3.512110476949    -2.825016145840
H      1.950187243020    -3.526692057433    -5.288583768614
H      0.501419637843    -2.163116983055    -6.796370825831
H     -1.351460311175    -0.786492661476    -5.839355944593
H     -1.762066229225    -0.789281516688    -3.362457299871
C      2.646120746097    -1.058930288756    -0.731208535680
H      2.582036882270    -0.990224678356    -1.814113337533
H      2.674781264571    -2.054141083933    -0.300501599742
C      2.868443457451     0.060436471465     0.065532165727
H      2.999525494822    -0.066062052163     1.129050265947
C      3.142832626118     1.412231327667    -0.454657653347
O      3.287775748541     1.596074011217    -1.692277642434
O      3.223080259449     2.478246675171     0.457669623536
C      3.433104598755     3.776168781984    -0.117118283662
H      3.472262579226     4.536515424100     0.692031676138
H      4.396828028233     3.810960874688    -0.674373871236
H      2.599820870266     4.043660827193    -0.806965097549
Pd     0.605572631846    -0.503195447796     0.065941345897
C     -0.030893786124    -1.742262592341     2.549659795916
O      1.030691768804    -1.448698996711     1.740068114714
O      0.121088858648    -2.077421242057     3.734520276237
C     -1.406568051548    -1.689777058910     1.835820350956
H     -2.137978278757    -1.327878395369     2.572376316903
C     -1.800786084608    -3.088644184218     1.391618195812
H     -2.796104575292    -3.084586870362     0.907314881537
H     -1.057760130788    -3.467478642966     0.659090229566
H     -1.833716359059    -3.773487868667     2.265420498635
N     -1.308392551290    -0.837060284958     0.636160520782
C     -2.340047729731    -0.327084821507    -0.075328469112
O     -2.255658773276     0.073756951162    -1.273699219349
C     -3.648795526964    -0.165454549265     0.608563383140
H     -4.051200709599    -1.153551024631     0.875239636960
H     -3.493153024923     0.467030175454     1.498185948968
H     -4.348562043402     0.339176232260    -0.083667211225
N     -0.511245152181     2.576733110032    -2.654924063280
C     -0.948120488872     3.871163188838    -2.584485070691
C     -0.933091561334     4.538812327864    -1.369242902995
C     -0.488456403676     3.899775846248    -0.228131993588
C     -0.059246021573     2.600579257155    -0.335361417066
C     -0.102931811603     1.990211660306    -1.608898116835
H     -1.299538053937     4.371162424288    -3.479378380691
H     -1.277856749775     5.558167774760    -1.320707180410
H     -0.476766534414     4.413463987853     0.729334512702
H      0.293331776185     2.051827419242     0.510703471822
O      0.350452332052     0.689840270771    -1.648282117974
H      0.036859085122     0.224431041458    -2.459660909064

