# STO-3G

title

0 1
C     -0.527119749652     0.633867131847     2.642690906622
C     -0.169410635939    -0.656855551621     3.090582158634
C     -0.564071276653    -1.082398964532     4.376348809105
C     -1.306022546778    -0.221242612802     5.208401118189
C     -1.654778971000     1.069977347886     4.761020553643
C     -1.265575418653     1.498461837569     3.477053336586
H     -0.211621241649     0.960185850068     1.655288649069
H      0.424750897533    -1.301245787225     2.446097785704
H     -0.290030720188    -2.075164523040     4.723585125905
H     -1.607262872982    -0.550884027521     6.199815717396
H     -2.220551697639     1.735654215696     5.408453706782
H     -1.520688522136     2.499580022855     3.134167983655
C     -2.590381926970     1.133958059832    -1.502210266544
H     -2.404991325774     1.318351553420    -2.552749100815
H     -3.332416626533     0.382985754108    -1.241857107268
C     -2.015690559413     1.892698425896    -0.485927120519
H     -2.305595278121     1.701177204698     0.538758101814
C     -1.214183216069     3.114571038382    -0.680246278625
O     -1.045189562950     3.599108788811    -1.830310645970
O     -0.675360879961     3.735204783824     0.460882612607
C      0.016578342666     4.971471017061     0.234247054106
H      0.399358141158     5.363553627849     1.201279652497
H      0.882908341687     4.823891808327    -0.448997977844
H     -0.668915856509     5.733099570021    -0.202583776725
Pd    -0.696887726122     0.043071607826    -0.762753636265
C      2.077549589277    -0.611165158685    -0.506257539185
O      0.854127177217    -1.106681561387    -0.186534343422
O      3.143753942311    -1.138283933726    -0.144567356206
C      2.028376685804     0.706382427611    -1.348682650863
H      2.818883889495     0.613698143007    -2.103647434703
C      2.319618453350     1.924046926257    -0.498928034883
H      2.307297924027     2.831673661996    -1.135551673861
H      1.547494283941     2.029396331341     0.288143927931
H      3.317882335185     1.828478514306    -0.022373163620
N      0.681042263639     0.858743273216    -1.931450681892
C      0.356813897987     1.067308733292    -3.229755538415
O     -0.783899753849     0.836855037782    -3.727853010285
C      1.393865473164     1.649131689615    -4.115812135989
H      1.774687313510     2.569468070856    -3.642376227247
H      2.184627233633     0.900989127088    -4.280364359275
H      0.924235111471     1.902623753610    -5.084334928094
N     -3.119781709074    -2.966504967959     1.059262536433
C     -3.695718222656    -4.149978562905     0.682504180815
C     -3.740191257286    -4.497172508882    -0.658069067112
C     -3.199936310382    -3.659987827990    -1.615456779410
C     -2.633100687791    -2.479341660928    -1.202119815494
C     -2.629038358044    -2.194775988640     0.180014292897
H     -4.114824417268    -4.809822712184     1.433208311684
H     -4.191486158783    -5.431314929385    -0.949530798105
H     -3.220884507829    -3.930552244259    -2.668026818984
H     -2.182538847279    -1.801477404262    -1.897288578860
O     -2.043304790574    -0.999738790910     0.527619221176
H     -1.880293522495    -0.919526294201     1.497914268403

