# STO-3G

title

0 1
C      0.022976581725     3.062730608488    -1.641402306589
C      0.837620573228     2.172032888992    -2.376253887061
C      0.694234496671     2.079727464854    -3.777580228962
C     -0.253276427162     2.882253240122    -4.445126370218
C     -1.057211586694     3.778960638153    -3.712241431790
C     -0.920482600214     3.867700926639    -2.312168421842
H      0.130123700152     3.142511332638    -0.562036652434
H      1.582670077650     1.570637994329    -1.859213673104
H      1.322901159577     1.394727701640    -4.341068445215
H     -0.360074684933     2.812583135841    -5.524864688560
H     -1.781842768537     4.404884372234    -4.227658284139
H     -1.532868566653     4.565265806115    -1.745864384197
C     -2.341406262699     1.893113234168     0.458509278994
H     -2.647827367992     1.628000450959    -0.549727475302
H     -2.029378437281     2.911109784797     0.663716340335
C     -2.469565642191     1.004452937122     1.521507217191
H     -2.245950568099     1.348756920933     2.519651570375
C     -3.091577098624    -0.326736814722     1.433607924598
O     -3.016969157055    -1.091256602869     2.431080546941
O     -3.610955432436    -0.773073549576     0.206231865419
C     -4.157350139293    -2.099243241042     0.196447793643
H     -4.514918250494    -2.340363185967    -0.828023401227
H     -3.384817277123    -2.850664709780     0.475069561960
H     -5.019222885564    -2.177146387936     0.896789434497
Pd    -0.316698346362     0.831258141928     0.753719029159
C      2.217703491986     0.119103563904     1.854773886457
O      1.562295016298     0.111545593673     0.665599348285
O      3.346241605166    -0.374662120613     2.022324079934
C      1.406373877303     0.797706900865     3.006687715007
H      2.134530689240     1.323287954545     3.637184212739
C      0.681595467088    -0.223296498083     3.857369908504
H      0.151284922639     0.290894275527     4.685055315252
H     -0.067021793272    -0.765968079495     3.243671101784
H      1.404401190489    -0.949469622193     4.285067315712
N      0.389529656595     1.680470386646     2.406676188719
C      0.131685271019     2.977540428900     2.662659327618
O     -0.671816046379     3.694731760276     1.992409395062
C      0.808807353326     3.602289532917     3.823948077329
H      0.581359404229     3.007742790518     4.724586271766
H      1.890515103424     3.645286201860     3.616092796728
H      0.420689360319     4.630303805724     3.949361704546
N     -1.287188606891    -1.813789015026    -2.548340013230
C     -1.391801094676    -3.152086567263    -2.815928585020
C     -1.101004998125    -4.077605882108    -1.826079560252
C     -0.688201098815    -3.657095229116    -0.576106823046
C     -0.603774031373    -2.307770432147    -0.340499151477
C     -0.926182133651    -1.427523755979    -1.393931218598
H     -1.701842562761    -3.483012020107    -3.800200338849
H     -1.176906136787    -5.130029904077    -2.044473215306
H     -0.435182253930    -4.375593967093     0.199101243794
H     -0.261339164083    -1.915968531010     0.593548601626
O     -0.799888351327    -0.094845790853    -1.093721999980
H     -0.769041073098     0.487379080976    -1.886341802061

