# STO-3G

title

0 1
C     -2.876299416959    -1.566723050455    -1.308264285722
C     -1.770731440001    -2.328082034087    -1.740196920133
C     -1.717897068752    -3.710609269351    -1.474961074717
C     -2.770799167725    -4.335655303816    -0.777269367967
C     -3.875903106099    -3.576143651661    -0.344303997241
C     -3.928163506647    -2.193657686700    -0.610884960896
H     -2.908987993350    -0.499108869274    -1.506318630035
H     -0.946155827343    -1.849032389401    -2.262359583930
H     -0.858138550084    -4.290446468917    -1.801136559423
H     -2.728671296899    -5.402188082258    -0.569092148776
H     -4.687240302357    -4.053238120068     0.200571217591
H     -4.777516699392    -1.608722450253    -0.261571154201
C     -3.519528891713     1.886553373473     0.305867091442
H     -4.068649652880     1.063090360351    -0.148507354664
H     -3.422533174932     2.777616240581    -0.306069506224
C     -3.099924410693     1.851026174002     1.624376842822
H     -2.613309380329     2.707223827247     2.063162398458
C     -3.344721037257     0.724472923987     2.543736722251
O     -3.894719292782    -0.325009599241     2.110320913210
O     -2.992417110045     0.854981105858     3.899626379943
C     -3.317413299749    -0.258981301860     4.742309943112
H     -2.992818900004    -0.040068387913     5.782114606411
H     -4.416447410437    -0.438359531678     4.752040304510
H     -2.796364556036    -1.180720530589     4.399440428577
Pd    -1.352730238624     1.177619329586     0.109058335595
C      0.922309012231    -0.545632410959     0.073477713006
O      0.284303606774     0.356494981906    -0.726912938522
O      1.842541338969    -1.276251070289    -0.324820915262
C      0.363938589082    -0.558939174230     1.536345652131
H      1.230717820972    -0.696621772046     2.196021573204
C     -0.584570091203    -1.714568993394     1.761633309820
H     -0.882275674368    -1.745801837479     2.828892820737
H     -1.499516058240    -1.583747704268     1.148985306990
H     -0.098561691561    -2.675193168696     1.490829402296
N     -0.384866564631     0.688813121691     1.794642108596
C     -0.073529464709     1.688211740612     2.654183010676
O     -0.573408830178     2.848427908438     2.605307788028
C      0.839519144633     1.370387157701     3.778026059872
H      0.865320544846     2.240764884956     4.458747013574
H      0.431246483248     0.495911866782     4.311976294478
H      1.851323726203     1.186214472421     3.380338267277
N     -2.798501386370     3.314008911287    -2.499844916027
C     -3.177697299688     4.328841315447    -3.336522697018
C     -2.599882294097     4.441638522912    -4.589590304788
C     -1.646235752282     3.534025192432    -5.003871725693
C     -1.290439176393     2.525138356556    -4.142873205657
C     -1.920327333770     2.475160522638    -2.874598018394
H     -3.927094861034     5.042232529027    -3.013830619524
H     -2.902306834135     5.244288745795    -5.242138125228
H     -1.192743382668     3.614154372257    -5.988465799054
H     -0.568276411668     1.785003776281    -4.420444996212
O     -1.556961490820     1.439940243869    -2.048014445098
H     -0.691727713781     0.979341150928    -2.208237852016

