# STO-3G

title

0 1
C     -2.261434852888    -1.469358508015    -0.881694771528
C     -1.314618927206    -2.490695163011    -1.104415413421
C     -1.683038212097    -3.635773735122    -1.838782172726
C     -2.989620580939    -3.760838576405    -2.352144711882
C     -3.932750072846    -2.736098693735    -2.136724380412
C     -3.567104684567    -1.591878630104    -1.401114658656
H     -1.987385324753    -0.586136158173    -0.308606284195
H     -0.301327882443    -2.391700449352    -0.725745249442
H     -0.952392383403    -4.422188674341    -2.010980984045
H     -3.269325409295    -4.646477572169    -2.917940287989
H     -4.940218012091    -2.825856331354    -2.536065030298
H     -4.291577987611    -0.794276768434    -1.238083740280
C     -1.988757114833     3.295453109116     1.030608684199
H     -2.454235042649     3.454205944882     0.060360226253
H     -1.278006865980     4.022576754041     1.408631345092
C     -2.368606174822     2.261898108493     1.887034118021
H     -1.929825890468     2.233289773317     2.870253827027
C     -3.447999839203     1.290707629473     1.648038273237
O     -3.939126765672     1.176159868960     0.494911153752
O     -3.700050307141     0.327382357732     2.640258343595
C     -4.653163716097    -0.690775349109     2.303011537938
H     -4.787529128648    -1.371688678709     3.170947926831
H     -5.642550264972    -0.242873504460     2.056267915881
H     -4.296009155634    -1.298730835625     1.441443939031
Pd    -0.613808921659     1.577270168111     0.549280078627
C      1.282969204471    -0.558794299405     0.629242975647
O      0.658010344553     0.239755248280    -0.270515352874
O      1.997084204435    -1.526376882888     0.309432534289
C      0.975526318318    -0.187778461825     2.114728569156
H      1.919065484185    -0.307314846283     2.663368495917
C     -0.048907201053    -1.133461072967     2.708139677051
H     -0.216099376120    -0.884168092686     3.775825687304
H     -1.013463008810    -1.030942420297     2.169230051755
H      0.305288906834    -2.183116934686     2.632365134113
N      0.421473943050     1.179157904849     2.197596039861
C      0.689442545002     2.151729593724     3.094997549767
O      0.151836278677     3.296700990990     3.088538320091
C      1.658034826871     1.848489092006     4.176703994240
H      1.721710066723     2.728319349442     4.842965387548
H      1.287880772146     0.980494155157     4.745927208495
H      2.647111885765     1.659923856907     3.725562803114
N     -2.890757045590     2.978467966927    -2.080062920962
C     -3.968845337959     3.320676742972    -2.849898415872
C     -4.355718612124     2.504267922494    -3.899843274708
C     -3.663381929159     1.341646897710    -4.171513359447
C     -2.586822161840     1.025019782689    -3.381656610818
C     -2.255647932337     1.903467907874    -2.319419031387
H     -4.513282268409     4.233463880540    -2.638476731991
H     -5.206457468739     2.780594394524    -4.499981338912
H     -3.967394758487     0.690365972102    -4.986615891661
H     -2.036646904966     0.117959457722    -3.531438018036
O     -1.186525708058     1.551011006116    -1.531573840077
H     -0.630805325361     0.784925052208    -1.801449923442

