# STO-3G

title

0 1
C     -0.406999083988     0.889509195743     1.690922433848
C     -1.536505525473     0.051227690542     1.591124893695
C     -2.830409445978     0.601638459572     1.680568890108
C     -2.997896262905     1.988958199504     1.866016535058
C     -1.869301085360     2.827254957199     1.962400204715
C     -0.575531286946     2.275731268893     1.876878475936
H      0.594208450617     0.474786947671     1.627770804569
H     -1.411923815127    -1.016692128219     1.426632786894
H     -3.701003739293    -0.045878509217     1.603346108122
H     -3.997580512580     2.412873072696     1.932676994273
H     -1.996859303075     3.898858193757     2.100019561461
H      0.297283500505     2.923204520986     1.944886127118
C      1.827016191198    -1.729342280355     1.090701453791
H      2.335638768483    -1.120846819286     1.832478757452
H      0.786238422136    -1.993077284109     1.230235238841
C      2.502292178587    -2.335751120573     0.031996205452
H      1.940849153429    -2.999739478773    -0.604904031200
C      3.963811942809    -2.326055159851    -0.166851988136
O      4.714495788341    -1.735227491565     0.654143864160
O      4.487723388157    -2.965657328388    -1.303832345439
C      5.913948728138    -2.914560126973    -1.449940832554
H      6.208800566948    -3.450644940516    -2.377592315168
H      6.265871536330    -1.860868816339    -1.529448389693
H      6.417530161218    -3.408007187185    -0.587702481207
Pd     1.692028458934    -0.302202213241    -0.673483994827
C      0.769992697570     1.251928018828    -2.892563913687
O      1.684849095411     1.289718352966    -1.892910495027
O      0.790069017307     2.015205728844    -3.871365969868
C     -0.347656784361     0.192923735243    -2.669782600568
H     -0.585866167950    -0.171303426722    -3.677291329898
C     -1.572752141840     0.860793542601    -2.068725336611
H     -2.403714641595     0.137083871381    -1.959739959036
H     -1.321628060376     1.262009869279    -1.064428147583
H     -1.913087658758     1.695619169904    -2.716942881355
N      0.096100207146    -0.894476167756    -1.749182899604
C     -0.550788790893    -2.051418089090    -1.472852703750
O     -0.271763699262    -2.806480684595    -0.493666510699
C     -1.642115177305    -2.536460775254    -2.359234921046
H     -2.567685480209    -2.556394682065    -1.759185631582
H     -1.781006661884    -1.923989400223    -3.255969548921
H     -1.383166304434    -3.565592468078    -2.666042598650
N      3.136085140442     1.004974650742     2.278473967562
C      3.464976157793     1.539500181905     3.494545377091
C      4.298647565051     2.643399544092     3.559286196344
C      4.816790026050     3.195991415700     2.405246204235
C      4.477376386309     2.628100105436     1.202056721319
C      3.619317892690     1.501118360736     1.213125836617
H      3.058448896245     1.106808521308     4.401181335896
H      4.549859675577     3.061566283862     4.519989897491
H      5.482498401497     4.053907111699     2.449674028105
H      4.874154302805     2.992812881858     0.277309256755
O      3.321307553506     0.949955657148    -0.012892232361
H      3.235537725661     1.574629017383    -0.777588575443

