# STO-3G

title

0 1
C      1.930180107759    -2.846072742794     1.380696350100
C      3.149634690027    -3.132911297293     0.733573063857
C      3.847206008822    -4.316519069747     1.046389489160
C      3.325784525591    -5.215289911917     1.999503708994
C      2.105191180309    -4.929127535307     2.643120992626
C      1.408508114713    -3.743134016421     2.334125146501
H      1.386045619175    -1.941870034480     1.124743111860
H      3.530009007006    -2.447774594189    -0.019242866092
H      4.790052832915    -4.536578391082     0.550427970922
H      3.866067198797    -6.128330381586     2.241036816257
H      1.701605665731    -5.620867740079     3.379779687744
H      0.464159701426    -3.526146548882     2.831289939354
C     -1.004580772804    -0.593821873761     1.706902170878
H     -1.810100097314    -0.077480912839     1.190935581895
H     -0.967582433321    -1.666771037485     1.542726607072
C     -0.098353831318     0.036391008366     2.488221449451
H      0.686335041146    -0.530746184056     2.968996029281
C     -0.070075319832     1.487230200679     2.737652382454
O     -0.823849227035     2.257000729039     2.080335461175
O      0.928138803255     1.998447458375     3.584895411781
C      0.941460466302     3.422928931374     3.754181103957
H      1.762077177591     3.702859360544     4.449752588724
H      1.120643629281     3.936322532150     2.782646793781
H     -0.019649046824     3.778811180900     4.190133470587
Pd     0.363503010109    -1.226498179756    -1.283985373154
C      2.691831111452     0.291698228120    -1.898568823124
O      2.299136001402    -0.986781587331    -1.692581634232
O      3.779803933645     0.606786143037    -2.409651825236
C      1.705419934991     1.374899439627    -1.343941708960
H      1.767571491519     2.252263592155    -1.998974920540
C      2.121434171624     1.763785795150     0.060306209797
H      1.459671293709     2.554016717789     0.460612200335
H      2.067620070157     0.874415559544     0.721391301021
H      3.163768605805     2.146559466961     0.056291194847
N      0.346718425431     0.797490316490    -1.278978788717
C     -0.800939529875     1.404529712073    -1.295043621068
O     -1.973944966618     0.775544091590    -1.220744760705
C     -0.903862228552     2.866255445280    -1.434282359610
H     -0.439854375067     3.337241145500    -0.553257384550
H     -0.409662262050     3.168775392119    -2.371618202674
H     -1.970839730321     3.156121021036    -1.469858421924
N     -0.028041253719    -3.260165357005    -1.206914496496
C      0.499857451341    -4.517257787515    -1.188730049802
C     -0.341304833486    -5.596994305014    -0.973888281997
C     -1.699600879616    -5.410614934233    -0.778322238639
C     -2.200437167474    -4.130100343371    -0.793713776803
C     -1.305341128450    -3.067208346095    -1.015258879658
H      1.562755175251    -4.664640925799    -1.341561059588
H      0.075432711742    -6.590256093780    -0.955690161803
H     -2.355596053705    -6.260083600968    -0.608648017133
H     -3.235969139322    -3.908159621491    -0.638768048115
O     -1.716870421440    -1.816366811604    -0.988364763170
H     -1.961658129425    -0.227763836341    -1.129666875915

