# STO-3G

title

0 1
C      3.031255832880    -2.048672258529     0.038226969467
C      3.623481480564    -1.743382605049    -1.205118600716
C      4.355675623203    -2.730708316046    -1.894402420541
C      4.496993433653    -4.020771034186    -1.344659089925
C      3.910030061686    -4.323667068752    -0.099854232640
C      3.179606785916    -3.337285351379     0.591979406958
H      2.463336817685    -1.288253096984     0.568463697985
H      3.520966496263    -0.745663189965    -1.624627404031
H      4.815788731189    -2.491500337308    -2.850124903487
H      5.065603840951    -4.780049750593    -1.876760753574
H      4.025921718228    -5.315556687280     0.330878870343
H      2.731350797241    -3.574440002794     1.554631161622
C      1.433281692437    -1.090465140751     3.228886016990
H      2.135991714565    -1.651434542977     2.622265390555
H      0.661606297067    -1.670458809285     3.728489869405
C      1.474872714495     0.257247141404     3.343835419118
H      0.729226480246     0.761425761101     3.941278019259
C      2.433175414601     1.142427276013     2.662413779190
O      3.395992668095     0.648491618876     2.016567590181
O      2.254086766173     2.533544742035     2.759830300035
C      3.047291294102     3.321298192666     1.860800658953
H      2.815833612343     4.397340605722     2.008692051826
H      4.134026776017     3.168003644485     2.049788754763
H      2.815744717040     3.059677071881     0.801435705888
Pd    -0.648143175045     0.516336636178     0.902401979530
C      0.960571759583     0.735296943425    -1.435604391228
O      0.623733212862     1.433709733516    -0.330070264185
O      1.809597262443     1.118469687101    -2.261642856770
C      0.169006290729    -0.605109674859    -1.637218862142
H      0.850627245925    -1.324352292220    -2.104958716011
C     -1.032239644267    -0.388465417819    -2.533202029481
H     -1.573824018706    -1.342832221317    -2.686657680693
H     -1.722001968205     0.342629327475    -2.062271348592
H     -0.704818916212     0.001502712502    -3.519955352565
N     -0.334170141474    -1.047859438365    -0.323765388911
C     -0.519401473813    -2.249439869654     0.122832408281
O     -0.969189746730    -2.518133563566     1.351733589232
C     -0.243234639322    -3.433341551298    -0.706033600410
H     -0.889502681439    -3.397467800701    -1.597574622814
H      0.821978009019    -3.429043583660    -0.991181708368
H     -0.461432975898    -4.349202492135    -0.126028096054
N     -1.187358159361     1.836998379409     2.407246725063
C     -1.052581410336     3.090154552226     2.926934498641
C     -1.636565903025     3.377744524799     4.149836457161
C     -2.351981808200     2.413193281488     4.840115685872
C     -2.467968552550     1.157551779605     4.292260305236
C     -1.857611616375     0.913516005344     3.047788001234
H     -0.489284934272     3.844615098879     2.389771170589
H     -1.527211454702     4.366354784140     4.564315772672
H     -2.808532569773     2.643529437349     5.798995384131
H     -3.000499276287     0.360994954695     4.769423004771
O     -1.905497467893    -0.277964083935     2.487915693074
H     -1.275215185963    -1.732912374690     1.899606237665

