# STO-3G

title

0 1
C      2.286818852696     0.958275675625    -1.761657481164
C      2.099829141584     0.598053347607    -3.111759598995
C      3.106582294194    -0.104749486923    -3.803621777035
C      4.306077254922    -0.446352303254    -3.146454707207
C      4.499233272165    -0.079499816923    -1.799413717802
C      3.490992780366     0.623448992671    -1.109599896312
H      1.514840448217     1.499523936725    -1.221690492720
H      1.176608096628     0.871534362553    -3.618847503131
H      2.961579436833    -0.377040387864    -4.846804942097
H      5.084534664833    -0.986896492567    -3.680253415692
H      5.426637466842    -0.337018186911    -1.292981014465
H      3.637379596048     0.906252494062    -0.069362612495
C     -2.928974007509     1.024824490382     1.015019995932
H     -2.789836705528     1.524602909098     1.971418865204
H     -2.938425412063     1.667386253217     0.138896169169
C     -3.011049540002    -0.319721320144     0.896035181403
H     -3.090689676683    -0.763555282852    -0.087381070274
C     -2.950143885851    -1.277269076618     2.011550284319
O     -2.930619831997    -0.862817144850     3.202191958427
O     -2.947379418265    -2.649939096866     1.709496118564
C     -2.700069252815    -3.529001884842     2.816216992001
H     -2.675933333475    -4.579738099232     2.455654663166
H     -1.711275117105    -3.309291336798     3.282132717264
H     -3.500001317087    -3.436172592543     3.584686661724
Pd     0.230255660051    -0.173633298021     0.982991387642
C      0.327568644823    -3.025978190422     1.020388978800
O      0.367769092758    -1.962382205140     1.854321523664
O      0.315277501020    -4.207193193344     1.410089886958
C      0.338550663652    -2.665866123429    -0.505758235750
H     -0.289471680737    -3.401290572052    -1.024198865479
C      1.747368657138    -2.728983104230    -1.057966940064
H      1.754605231192    -2.476321067823    -2.136615404327
H      2.389883406569    -1.998168051033    -0.524751300419
H      2.165721739453    -3.748277980095    -0.923272403480
N     -0.133339634794    -1.277465472745    -0.663011533811
C     -0.760137074123    -0.735884142607    -1.656439232684
O     -1.120607450035     0.550689101849    -1.694970125590
C     -1.163240538382    -1.519850927737    -2.833833212643
H     -1.683580029050    -0.859062449764    -3.551364095009
H     -0.256430714719    -1.932098783870    -3.305492396720
H     -1.847622238909    -2.322466020568    -2.507963498729
N      0.381304000199     1.290497742458     2.441912693126
C      0.510956206246     1.552745685933     3.773389937761
C      0.373355061069     2.857008520253     4.220074874368
C      0.102593864406     3.886082786148     3.333789673022
C     -0.032588761466     3.589890065485     1.998089348663
C      0.114305530071     2.249687337457     1.593879702260
H      0.722575135395     0.748235651186     4.468326429623
H      0.475335873524     3.065227524765     5.272341761551
H     -0.005333289217     4.907523989734     3.688536850845
H     -0.246095631601     4.331523443705     1.256727800787
O     -0.031796931870     1.902563678178     0.330329993989
H     -0.813925133729     1.128860764076    -0.929519533469

