# STO-3G

title

0 1
C      0.941219751709     0.228790840243     3.223876059222
C      1.244899622409    -0.828642770372     4.104621650857
C      2.323390352895    -0.710757828993     5.004430964579
C      3.095446419326     0.468000196573     5.025714558405
C      2.787984415815     1.526916389794     4.147051152707
C      1.713061204041     1.408302947614     3.243598912445
H      0.124211317536     0.134492797035     2.514320550697
H      0.649541451848    -1.740006301730     4.093805676718
H      2.555171315353    -1.527317850669     5.685362847241
H      3.924113020387     0.562160402612     5.724567034754
H      3.380423450153     2.439114164912     4.166467039886
H      1.482000454263     2.208315242156     2.545970157332
C     -1.515369515637    -1.847424268717     1.998844230732
H     -1.730151818243    -1.363684929960     2.948427950782
H     -0.496979518312    -2.196019080847     1.850121081735
C     -2.432253263182    -2.006038716919     1.018850369414
H     -2.138666291429    -2.477975899506     0.092199476985
C     -3.829538338703    -1.550051350320     1.083145842419
O     -4.256350605640    -0.966261730823     2.115823338693
O     -4.618749341839    -1.640000680376    -0.078246630030
C     -5.975644809995    -1.191897050477     0.051025662812
H     -6.501961201772    -1.322532583475    -0.919042961275
H     -6.516543250235    -1.788278682391     0.820875009022
H     -6.014244366537    -0.113900174901     0.327929600640
Pd     0.282988896290    -0.088068361278    -0.238468865608
C     -0.504185563570     2.654058830954    -0.174641182556
O      0.511707260718     1.843835912941     0.199280116118
O     -0.454524738664     3.894811700985    -0.117296293537
C     -1.806358417333     1.910817944803    -0.632216788063
H     -2.265616421770     2.510112147168    -1.428174956442
C     -2.775280316318     1.790406015488     0.526179570267
H     -3.717212559574     1.311600755328     0.196898799288
H     -2.323556654399     1.173651918414     1.331608134898
H     -3.012414606746     2.796342601971     0.932070074043
N     -1.450426840240     0.544403756074    -1.061219054857
C     -2.031363823020    -0.214588749061    -1.937171751105
O     -1.628933784390    -1.452279650996    -2.226556271293
C     -3.206715157073     0.241072997774    -2.696131233566
H     -3.532803663331    -0.566606736645    -3.377287368819
H     -4.018053063999     0.461992550596    -1.984717329926
H     -2.928009419801     1.131481936873    -3.285440259205
N      1.965742351193    -1.125432755727     0.395227227302
C      3.149549013581    -1.072237704667     1.070626849302
C      3.883550929191    -2.235837249580     1.233992318432
C      3.428868871816    -3.439805011099     0.722634284670
C      2.229115321556    -3.461956089593     0.051156921617
C      1.521872965230    -2.253691756353    -0.089319654969
H      3.508278864116    -0.130918743999     1.470361290768
H      4.816680069858    -2.195066550051     1.771016198040
H      4.006648819018    -4.350488892394     0.855255621115
H      1.809203328438    -4.356172818484    -0.360743788477
O      0.342209554265    -2.220975793211    -0.681323648692
H     -0.841034028913    -1.816339047827    -1.710817034084

