# STO-3G

title

0 1
C      1.641659140910     2.674580985595     3.094729670263
C      2.075273756608     2.265080881203     4.371307046195
C      2.222516572199     3.210135263808     5.406247400156
C      1.940499704901     4.569664000125     5.165175110168
C      1.512309091862     4.983420334967     3.887887182359
C      1.364314980565     4.036087892782     2.855990978715
H      1.540758987576     1.950710482113     2.291024120678
H      2.298405769648     1.216503436506     4.556443260826
H      2.555580152811     2.890615538492     6.391231856392
H      2.054201611974     5.299258251873     5.963833156514
H      1.295011741834     6.032417685171     3.699547222186
H      1.032051886234     4.358042824568     1.869808715649
C     -1.255606093374     0.837734378897     1.933597972295
H     -2.067267169721     0.147357898907     2.149175245865
H     -0.348903690797     0.711701215000     2.518034178065
C     -1.333908673887     1.800913775458     0.986741407425
H     -0.481715875889     2.443686407433     0.811871352151
C     -2.500215860670     2.055323300172     0.126890737278
O     -3.534814198318     1.342721116463     0.240428669945
O     -2.412127951576     3.067564468594    -0.844442431660
C     -3.533046344546     3.181898392198    -1.732174569880
H     -3.349357780865     4.007089955574    -2.453192694411
H     -3.674768935668     2.240740961352    -2.311533512428
H     -4.464556309205     3.413290277552    -1.167362419362
Pd     0.338086276390    -0.094574367849    -0.958529280329
C     -1.288197696477    -2.094553059457    -2.163164234905
O     -0.768991972968    -0.871344513435    -2.414355864890
O     -1.826698819429    -2.807852075205    -3.026940337527
C     -1.230428484882    -2.539280653069    -0.660003292771
H     -1.076862413415    -3.625380223038    -0.640319350029
C     -2.539114619423    -2.205444686822     0.027561466920
H     -2.513604223947    -2.497849978962     1.094257437683
H     -2.724855453653    -1.113558428275    -0.037335064429
H     -3.376379249378    -2.739150897135    -0.469476169404
N     -0.155697339018    -1.789786722320     0.024103620132
C      0.524962603656    -2.122071912023     1.075871754619
O      1.441305871864    -1.338094549501     1.647677225512
C      0.351286545004    -3.429929901640     1.729439276438
H      1.042643828577    -3.501923562132     2.589564094186
H     -0.685901056516    -3.516213044324     2.088013706150
H      0.591715136330    -4.223809339826     1.001010549806
N      1.146778066969     1.686291345319    -1.649206346682
C      1.198140234555     2.593918343599    -2.665023497414
C      2.036776151009     3.690601644347    -2.547618121941
C      2.817336717649     3.869643889336    -1.417430133694
C      2.744958764655     2.937352674334    -0.410107176804
C      1.880659348652     1.839600383079    -0.578215276819
H      0.585503459932     2.456788165830    -3.548633114828
H      2.076993852555     4.410044038368    -3.348711136837
H      3.472710603274     4.731858369607    -1.327912155039
H      3.315678237038     3.013059257524     0.493520834209
O      1.750639535733     0.927531153399     0.361818337019
H      1.625966715430    -0.450243234300     1.208747204315

