# STO-3G

title

0 1
C     -3.264410568150    -1.625422689850    -1.331083237668
C     -4.550088992342    -1.630281100867    -0.754013501038
C     -5.162653844322    -2.851564887061    -0.408150165584
C     -4.486936047893    -4.067443894694    -0.635086882565
C     -3.201356976708    -4.061029259748    -1.212749657833
C     -2.589550657039    -2.841325506645    -1.563725407748
H     -2.778336898351    -0.689005004662    -1.593969749197
H     -5.067811537183    -0.691787131818    -0.572394463668
H     -6.157583868558    -2.855824304933     0.032771982663
H     -4.957831187124    -5.010723889620    -0.365799957547
H     -2.675233783892    -4.997051986042    -1.385340656046
H     -1.594956396022    -2.832773653750    -2.000528113569
C     -3.745413906259     1.893009459717    -0.571623455928
H     -4.636675252724     2.514058650650    -0.611741082935
H     -3.464255846350     1.388534692082    -1.493076304054
C     -2.997166910369     1.733472749240     0.542583746267
H     -2.124103079624     1.100307869095     0.503006807440
C     -3.274055667163     2.365249604010     1.842840803739
O     -4.278706050760     3.112634218095     1.983737438277
O     -2.325980826085     2.222983055243     2.876038340933
C     -2.686092813456     2.814145184086     4.133822592419
H     -2.835259403715     3.914374624951     4.031806061585
H     -3.621645004791     2.356916753463     4.530721569682
H     -1.876174512097     2.638834496739     4.873391506491
Pd    -0.082420367802    -0.123569458824    -0.978339320403
C      0.645263894243    -2.385632982431     0.640019573915
O      0.547172579870    -1.989702162354    -0.632464879295
O      1.104664821538    -3.476667892144     1.027282171184
C      0.084686424963    -1.352222045943     1.672363015148
H      0.694007349852    -1.448765325960     2.579670130228
C     -1.359818706367    -1.655632062331     2.012104311466
H     -1.751035647750    -0.918134370188     2.740853378790
H     -1.977600054131    -1.609241258488     1.093043427930
H     -1.443330426728    -2.674309209146     2.445712249834
N      0.110208781149     0.007846367951     1.075066083982
C      0.316381966037     1.104278171190     1.708591260149
O      0.245191964538     2.279088122803     1.023334271925
C      0.670642105980     1.131958810635     3.148528034180
H     -0.146298074276     0.654180776190     3.717111135071
H      1.618079156744     0.579494062535     3.279272097052
H      0.806843933917     2.164394742594     3.511948741661
N     -0.682410251272     1.651382009107    -1.916956075045
C     -0.954508782858     2.984963640245    -1.831659792981
C     -1.277474369012     3.689116860709    -2.980469196318
C     -1.313299251358     3.058963490654    -4.213097300194
C     -1.021176596791     1.719556046848    -4.276981314876
C     -0.694723610433     1.046596748017    -3.083833068365
H     -0.944736667628     3.486734286244    -0.873317346942
H     -1.504291128424     4.739610874860    -2.909385208021
H     -1.565447279681     3.613686710730    -5.112773805300
H     -1.017444790918     1.161361383477    -5.190798952486
O     -0.394449643076    -0.229041039440    -3.079461036281
H      0.210010070353     3.080527617991     1.577699262042

