# STO-3G

title

0 1
C      0.625830057978     2.492980525989    -1.701485350361
C     -0.503537031748     2.894798904174    -2.445487116347
C     -0.570870895499     4.200965274423    -2.969805073646
C      0.485579462591     5.108023078539    -2.753077339972
C      1.611744330710     4.708426602030    -2.006778026536
C      1.680091777769     3.402526224153    -1.482245951792
H      0.677956856243     1.484353937631    -1.294775023261
H     -1.322406895298     2.197980135239    -2.598466366568
H     -1.445540240142     4.509928077538    -3.537811347243
H      0.430825902662     6.116434527961    -3.157796704928
H      2.428143211164     5.406387031002    -1.833675976225
H      2.550601145052     3.106227148589    -0.899609559128
C      2.491049541539     0.119965115552     0.277136345335
H      2.761860946669     1.019841739446    -0.265913050422
H      2.629383602887    -0.820715272051    -0.246690083194
C      1.963140090188     0.131412647500     1.521895147752
H      1.691961544677    -0.801965910040     1.996405118598
C      1.675324871754     1.343026329084     2.301200944229
O      1.074020758505     1.224080588171     3.402841328594
O      1.946605233435     2.607714509289     1.748254006655
C      1.501350517081     3.738776518899     2.508752837159
H      1.766394062430     4.672147138855     1.966265034321
H      0.395625136497     3.718681623718     2.637595714190
H      1.992492744979     3.763018556760     3.507789888551
Pd    -0.704622975513    -0.837195427659    -1.077723942143
C     -3.048795542914     0.687614313851    -0.529640863120
O     -2.252401487802     0.313339426427    -1.558302643684
O     -4.149967022907     1.242282885983    -0.680560107629
C     -2.443896285340     0.438159633125     0.893111848813
H     -3.273195040638     0.185931358202     1.565289037687
C     -1.757761077368     1.693739175225     1.391540448306
H     -1.391789843878     1.551384367312     2.426010494993
H     -0.898259770847     1.938531231686     0.734093251629
H     -2.469683246149     2.545778934306     1.384820944934
N     -1.427316518924    -0.630382199379     0.798240263174
C     -1.045658842117    -1.474628546103     1.704758317343
O     -0.108460056761    -2.402998251245     1.504244310237
C     -1.616902208432    -1.468587867514     3.060625019048
H     -1.153081903142    -2.277614716771     3.654633250075
H     -1.385565291644    -0.499650823657     3.533573530686
H     -2.704780575520    -1.639780095139     2.993795703835
N      0.273712503775    -1.326665774920    -2.830484551004
C      0.355015587658    -1.130576822084    -4.176841434877
C      1.297321825005    -1.838722116770    -4.904412380672
C      2.148309115262    -2.736094711101    -4.280438327198
C      2.043533344965    -2.910766402393    -2.920541264099
C      1.068380983173    -2.170984201253    -2.226086516345
H     -0.309269610834    -0.426988596077    -4.665569698881
H      1.363656780678    -1.685083483693    -5.968969857724
H      2.885721636473    -3.290224166693    -4.855007121587
H      2.666577070884    -3.586154760804    -2.371498085241
O      0.932610561900    -2.283720349446    -0.921339774289
H      0.326655989509    -2.433736661530     0.596282573996

