# STO-3G

title

0 1
C     -0.461413440871    -3.458420311467    -0.937331754763
C     -1.433495762592    -4.111219070145    -1.721113195517
C     -1.610893660349    -5.504521865399    -1.610171376930
C     -0.814788846160    -6.246247627849    -0.714159110470
C      0.159190982212    -5.594159118618     0.068119988699
C      0.335801213550    -4.200643995595    -0.043577581512
H     -0.338287405134    -2.385264363464    -1.025621706417
H     -2.042206827184    -3.533518515178    -2.413132763990
H     -2.359792854936    -6.007470672800    -2.217763343926
H     -0.950119067870    -7.322066595501    -0.628475234914
H      0.776153543967    -6.166444225147     0.757154233445
H      1.090803676920    -3.698777582597     0.557345025765
C      1.274067955176    -0.658623007706     0.208693480956
H      1.591325316378    -0.981198428375    -0.781205071715
H      0.443773640411    -1.211965089979     0.639819589706
C      1.834956661701     0.375255123067     0.874247223395
H      1.462217636423     0.653842984768     1.848874732730
C      2.923546941354     1.222587962074     0.359873137852
O      3.322466098796     1.087734047875    -0.831607949684
O      3.514132895334     2.156891388203     1.227042258723
C      4.493858760949     3.026782590448     0.643634814585
H      4.875243128314     3.722792660676     1.421312108777
H      5.353570498617     2.444815245447     0.242019926095
H      4.044084726611     3.639735345241    -0.169767121092
Pd    -0.748281581106     1.533806338643    -0.946930146012
C      1.023103413136     3.764587745216    -1.150092728268
O      0.152487597929     3.190560302439    -0.292318422317
O      1.710897976934     4.763903488795    -0.873189516313
C      1.105623814692     3.091315733892    -2.565483608504
H      2.159071463525     3.112281032398    -2.872945057172
C      0.275140415509     3.856847776582    -3.573687543296
H      0.359165396040     3.387746193660    -4.574220141782
H     -0.790208768838     3.846054481394    -3.262421993768
H      0.627035659893     4.908031410802    -3.637717939796
N      0.545126408157     1.730726569498    -2.480486469596
C      0.905744054852     0.668006659201    -3.129574982567
O      0.320601003939    -0.523820070975    -2.981913938787
C      2.018956471154     0.688098252414    -4.091277820683
H      2.132988995695    -0.316646576488    -4.537750909588
H      1.793396810444     1.423164031494    -4.879827242986
H      2.943682335089     0.949910096315    -3.545442089853
N     -2.050265465992     0.849900893655     0.528338850871
C     -2.557688481696     1.035773407013     1.779959428467
C     -3.311228970809     0.027877385607     2.359108413307
C     -3.556175391933    -1.154554903759     1.680265024848
C     -3.036598768801    -1.310752546214     0.417676925511
C     -2.279032069206    -0.257898367377    -0.127299669995
H     -2.364457846339     1.959175125397     2.313729524857
H     -3.709735426965     0.171319903343     3.349973906097
H     -4.145112516187    -1.944769586392     2.138252483094
H     -3.177250181683    -2.201030964962    -0.160691366314
O     -1.729099302807    -0.361618920574    -1.322338385094
H     -0.466111016416    -0.566122941919    -2.352804412309

