# STO-3G

title

0 1
C     -0.218100621056     1.847907413624    -1.353752953825
C      0.111178911802     3.072817652579    -0.736165905959
C     -0.013655741788     4.276327508481    -1.458366722973
C     -0.466696427052     4.259663141966    -2.793245759817
C     -0.791334887520     3.035313173099    -3.410410504409
C     -0.664880663795     1.830662684035    -2.689950693172
H     -0.129897797742     0.917648521903    -0.797056256101
H      0.453835111453     3.076894397710     0.294838986068
H      0.245860844201     5.220456060398    -0.984325902110
H     -0.560650094649     5.190176747442    -3.349284721623
H     -1.135528557165     3.017939617006    -4.442386643428
H     -0.904832867955     0.884790615636    -3.173679850310
C     -0.916271340509    -1.791889051753    -1.086991516513
H     -1.172484401044    -0.986826906047    -1.771276279516
H     -1.719403915314    -2.123580795043    -0.437330331723
C      0.322103577395    -2.327707842978    -1.001257576007
H      0.519068634021    -3.107342181633    -0.276325477275
C      1.470345713914    -1.912588361502    -1.818764800075
O      2.593612433578    -2.437396021959    -1.595275227346
O      1.326658913458    -0.848985837852    -2.727370316923
C      2.532033860755    -0.375960064687    -3.342981443621
H      2.288250242091     0.468798920265    -4.023486389724
H      3.247446205588    -0.002555763613    -2.575579684480
H      3.014350207236    -1.181286333312    -3.941831424455
Pd    -0.753063153064     0.249685241676     1.753843946140
C      1.750051983010     1.255301401618     2.672433825803
O      0.569964687082     1.682426985943     2.164419084016
O      2.579391814662     2.003412151252     3.215827195439
C      2.043173341842    -0.263834777747     2.435103815294
H      2.649554947776    -0.626935550887     3.273763718021
C      2.814833897493    -0.435160762014     1.142281267516
H      3.032581920276    -1.503492846352     0.950867435578
H      2.217974401463    -0.034022323828     0.297051811604
H      3.776448304182     0.117268351217     1.196705007740
N      0.758904792287    -0.981011278215     2.291971358347
C      0.494277324261    -2.228815317798     2.521827096587
O     -0.695355546863    -2.788418265053     2.299510988940
C      1.507016938613    -3.146681217437     3.068353121104
H      2.351869511391    -3.210050873271     2.364027486173
H      1.830238215798    -2.763037364127     4.050523862113
H      1.063067366839    -4.151968577715     3.196439497794
N     -2.503949894178     1.160889021739     1.139794721119
C     -3.096088457827     2.323239592542     0.743822620911
C     -4.406458588966     2.291406072218     0.295375354893
C     -5.110617009892     1.099757089187     0.244836870333
C     -4.482432312153    -0.057350333260     0.641929889262
C     -3.150470932567     0.027110051982     1.088066078525
H     -2.546024014018     3.256423264994     0.783499387736
H     -4.875697180989     3.208870574388    -0.019146153904
H     -6.138032342620     1.079183214347    -0.108414612329
H     -4.959968869708    -1.014833784503     0.620492303139
O     -2.480923038759    -1.052841903323     1.435961821333
H     -1.431706370840    -2.191139394394     1.960747184381

