# STO-3G

title

0 1
C     -2.168740115908    -1.441185541141    -0.801153984673
C     -3.426616546790    -0.840114083782    -0.593313833971
C     -4.560978319340    -1.639078472728    -0.342879840641
C     -4.437389597946    -3.042088874602    -0.305150984119
C     -3.179925904949    -3.643311702219    -0.519382676853
C     -2.044881183920    -2.845374420286    -0.764971542742
H     -1.286017554385    -0.832315906757    -0.970452215136
H     -3.529917443251     0.243943808355    -0.624808229660
H     -5.530300783592    -1.169510902346    -0.186849007698
H     -5.313451164978    -3.659989770485    -0.118837386451
H     -3.085491852912    -4.726936722416    -0.498019758234
H     -1.066537825876    -3.291439661147    -0.915554726340
C     -0.640317494228     1.779403516558    -1.343314140989
H     -1.490767866494     1.240332529670    -1.749544418623
H      0.336917149416     1.457193209821    -1.693078799366
C     -0.758951127640     2.780116554888    -0.441168761226
H      0.125426445674     3.264157087727    -0.054377327354
C     -2.029561671550     3.262518459978     0.125987419162
O     -3.125872648980     2.794281170528    -0.285189541412
O     -1.987840280661     4.249644590651     1.127140072767
C     -3.254967171093     4.636587321261     1.676618288131
H     -3.097371544621     5.414526236908     2.454181656128
H     -3.914953661037     5.062673615342     0.887035841250
H     -3.761274240051     3.765441460025     2.151168760072
Pd     1.066935775618    -0.404169787853     0.754394555414
C      2.103935134202    -2.188009149438    -1.224009502031
O      1.049017468322    -2.039842643115    -0.393063710601
O      2.207538248570    -3.108746599259    -2.052906027221
C      3.235531005839    -1.117146309207    -1.049236310930
H      3.648351885082    -0.909214982345    -2.044564498560
C      4.335922017182    -1.641889647881    -0.150945683072
H      5.140991467138    -0.887553251942    -0.046829829649
H      3.922072888007    -1.863367511484     0.855235052888
H      4.767009580009    -2.571141708788    -0.579786174200
N      2.659912522666     0.069462233373    -0.390449938050
C      2.994802724187     1.316382739173    -0.510031845156
O      2.418122028923     2.305619600605     0.171020653489
C      4.030605199851     1.744606866729    -1.463442142493
H      4.980015102322     1.249427437392    -1.201524940899
H      3.702057660236     1.471913263875    -2.480473045628
H      4.158071069315     2.841948364175    -1.400200139401
N     -0.589644997516    -0.391048608017     2.026627873044
C     -1.757542714676    -0.995345641502     2.391385843300
C     -2.655968574823    -0.302391260153     3.186777040087
C     -2.382269003313     0.987489735146     3.608240569225
C     -1.195834172514     1.568343391885     3.229165794046
C     -0.316527715228     0.821595497382     2.423701693865
H     -1.975301116486    -2.005303566791     2.064499924351
H     -3.583029852222    -0.776510804606     3.462913722013
H     -3.094537586389     1.531852592273     4.221888587106
H     -0.923862542440     2.568221265913     3.498840083522
O      0.813368301329     1.346020509833     1.983777109634
H      1.753388861474     2.040942983696     0.889626128246

