# STO-3G

title

0 1
C      0.807935161777    -2.485783207511     1.091602004801
C      0.423270299146    -3.837671404955     0.980508486877
C      0.803937458796    -4.766057768945     1.971088519091
C      1.574673515157    -4.341731003625     3.072031965056
C      1.964188857561    -2.990646426294     3.180334601946
C      1.579703534848    -2.062597645265     2.192349660365
H      0.501997537444    -1.756507686625     0.350865339569
H     -0.172861951304    -4.169509314201     0.130676002481
H      0.508112700997    -5.809751541937     1.882669804947
H      1.874283198658    -5.058333059451     3.834257860612
H      2.565681598978    -2.665429851263     4.026770367814
H      1.864596169935    -1.016496040603     2.263436265110
C     -0.874427992697    -1.653959166768    -2.416464606501
H     -1.348735101553    -0.820102941937    -2.924556087886
H     -1.553032722167    -2.415560744558    -2.038178860160
C      0.464137987176    -1.758651583903    -2.249652672755
H      0.880706177553    -2.613658882308    -1.739983917712
C      1.451698655923    -0.746891695662    -2.661916746643
O      1.070933370576     0.328566423505    -3.204367450646
O      2.812122637825    -1.001979428224    -2.423235133590
C      3.708157930021     0.092850714606    -2.658225772435
H      4.746624270258    -0.227356752237    -2.426032419068
H      3.671736690598     0.416050613355    -3.722842059944
H      3.460987260063     0.953578457201    -1.995629042402
Pd    -1.512784356718     0.341696005777     0.099108105090
C      1.005515890448     1.691799137748     0.077361657882
O      0.359226722428     0.689195127399     0.712828629524
O      2.213876861825     1.941671967902     0.236357729945
C      0.106705555518     2.562644501014    -0.865501832223
H      0.726751517184     2.871887732709    -1.716214925651
C     -0.395509205578     3.791644893625    -0.136457986647
H     -1.013184321980     4.414924892695    -0.812819601718
H     -1.016916241561     3.481847804424     0.729610699509
H      0.462175776164     4.396155811147     0.226586934853
N     -1.073434621807     1.769514736710    -1.255575283438
C     -1.736517798435     1.809593828369    -2.370278560073
O     -2.799336501685     1.045101559500    -2.628028200935
C     -1.356356662901     2.715837693603    -3.466170626546
H     -1.382221793772     3.753350017116    -3.097844489017
H     -0.345485427800     2.433452781425    -3.808430593459
H     -2.068073184572     2.600099990485    -4.304533811343
N     -2.337703319851    -1.222452682447     1.210614340496
C     -2.184351692123    -2.117710072029     2.228991914706
C     -3.138351387243    -3.106486364362     2.407543956605
C     -4.240792990254    -3.188340424550     1.574101438073
C     -4.373903715362    -2.266727624898     0.562932304599
C     -3.378843940864    -1.281229344764     0.423918645270
H     -1.329006610292    -2.051659310035     2.890988368520
H     -3.011563213815    -3.817008666484     3.207573013088
H     -4.987470435580    -3.964436117282     1.718748495407
H     -5.202416138538    -2.261512796459    -0.114681581429
O     -3.451080951652    -0.374210484791    -0.531579029072
H     -3.117662258066     0.434505558575    -1.889013824567

