# STO-3G

title

0 1
C      0.210698850534     0.681502704734     3.693906224495
C      0.316604281019     1.885063550435     4.421393262090
C      1.278760031975     2.012333989889     5.442545338764
C      2.137164745972     0.935461677038     5.741169701761
C      2.026276889903    -0.270742467802     5.021808200315
C      1.062598715249    -0.399415550651     4.001544660117
H     -0.535016503963     0.592686184687     2.906306780774
H     -0.346778497755     2.713602917300     4.187348277065
H      1.354286966836     2.941302062277     6.003195693212
H      2.879592995528     1.032676087626     6.530140402966
H      2.681409491644    -1.106437499427     5.257058076723
H      0.972881208074    -1.337691873909     3.460721868847
C     -0.615604449615    -1.543275000584     0.969518096421
H     -0.229802896733    -2.063185832607     0.097434709446
H      0.045602470993    -0.816650599783     1.425882990286
C     -1.859899203399    -1.730404083532     1.464485609562
H     -2.202199249770    -1.134050895167     2.301204088440
C     -2.863069038769    -2.648071908586     0.898526078332
O     -2.567185332790    -3.384688462327    -0.081818642131
O     -4.143339777593    -2.686340325623     1.479645223526
C     -5.090385491552    -3.557992012332     0.846949190072
H     -6.060601251547    -3.500520017257     1.385167168397
H     -5.259006380214    -3.254660989239    -0.211351949186
H     -4.737259842565    -4.613828658743     0.876832606155
Pd    -0.766322154454     1.081238892258    -0.546376372620
C      1.854225890850     1.167271390417    -1.671920062126
O      0.626984793534     0.646943862990    -1.899530683811
O      2.788394237968     1.118047015983    -2.490511201850
C      2.055154370593     1.802769906493    -0.251594188390
H      2.686335541956     2.691173261600    -0.378163260719
C      2.755546758360     0.824693434197     0.671253673546
H      2.837033200699     1.235806166664     1.696691114357
H      2.186161329786    -0.123709068419     0.715819774399
H      3.775586485604     0.609579984586     0.289014380039
N      0.733708415515     2.114248018763     0.328729463033
C      0.419838326944     3.034203510016     1.188612153451
O     -0.812977457761     3.226689340046     1.655663104650
C      1.424445056606     3.970424091940     1.719167039484
H      2.195581661993     3.396160508765     2.257769536679
H      1.854051627881     4.538673945176     0.877678925556
H      0.938555781208     4.671297453834     2.423611039177
N     -2.598433995091     0.297588824937    -1.165763389866
C     -3.268970476976    -0.454795316085    -2.084173829063
C     -4.631931409768    -0.651339696674    -1.928636898160
C     -5.310584715245    -0.095772889518    -0.856768877528
C     -4.606431287163     0.656374405858     0.052730286774
C     -3.224482327921     0.826572245842    -0.150108329970
H     -2.737535919972    -0.894069497957    -2.920507755077
H     -5.161211870926    -1.249587607679    -2.651482423129
H     -6.377551344190    -0.258731052660    -0.732478693135
H     -5.058622881505     1.097147833620     0.916705720850
O     -2.488664538546     1.487694623968     0.720523379293
H     -1.541312692690     2.603740951765     1.330901118240

