# STO-3G

title

0 1
C      0.117202121283    -0.514970847892    -3.309302158565
C      0.586611431032    -1.812337142097    -3.600399607620
C      0.382611565606    -2.369062788542    -4.878692224963
C     -0.286769780226    -1.627085654979    -5.871732113323
C     -0.752475823630    -0.328410987840    -5.584372392457
C     -0.551868489372     0.225918412491    -4.305116449453
H      0.267585166328    -0.080803138731    -2.324480624435
H      1.113700773628    -2.390812373171    -2.844970659919
H      0.746082975632    -3.370079348495    -5.099472308205
H     -0.441779457199    -2.055379316790    -6.859490585339
H     -1.267407001387     0.247620881189    -6.349894027956
H     -0.925531048236     1.220195179726    -4.074873508784
C      2.400913894564     0.731044055757    -0.662470561131
H      2.826802286017     1.457119684074     0.025851225154
H      2.140506816846     1.108409257928    -1.647756524453
C      2.134218087884    -0.546047562645    -0.308243488824
H      1.672194228655    -1.206791063643    -1.025923304818
C      2.383506699363    -1.138420417300     1.015499743010
O      2.980332868001    -0.477518402259     1.908401641855
O      1.962362460470    -2.461252652637     1.235606780968
C      2.024820772225    -2.916146313034     2.594674376087
H      1.637806497021    -3.955980290394     2.654553072821
H      3.072884252378    -2.907224926056     2.969909800989
H      1.389069804524    -2.280018831363     3.253352203971
Pd    -0.598154140382     0.626064793939     0.939673721829
C     -1.485474414346    -1.923366721162     1.848662002567
O     -0.713732329708    -0.881451909871     2.222937448031
O     -1.729059171431    -2.895236272415     2.585988239430
C     -2.039165506559    -1.867139436774     0.381565867310
H     -3.096259680465    -2.155260206185     0.443716737540
C     -1.297183741482    -2.852697830861    -0.499845232832
H     -1.653082061921    -2.796380068184    -1.547632805888
H     -0.213908389336    -2.623428029291    -0.478966626748
H     -1.449078714520    -3.886317771734    -0.123853677370
N     -1.849560189246    -0.511232239625    -0.179121371073
C     -2.423749237996     0.059169383216    -1.194735506226
O     -2.134616068875     1.292628747470    -1.610477674296
C     -3.454760525825    -0.594187917593    -2.019326610963
H     -3.055246895834    -0.679517001821    -3.045696940642
H     -3.722325429482    -1.590338938455    -1.643882414523
H     -4.350329219318     0.052389769243    -2.020139337645
N      0.585642549943     2.074586541183     1.811636457399
C      1.377125566746     2.398757238214     2.873009541660
C      2.017893341507     3.627417283983     2.883154312097
C      1.867687095450     4.515291858900     1.830913674313
C      1.072665699268     4.154076677164     0.768638578842
C      0.441802346156     2.896331326212     0.805678337151
H      1.498122027246     1.702310619399     3.694851928783
H      2.645119220663     3.884351539660     3.720613123021
H      2.375318452538     5.475974854809     1.841508924192
H      0.920567580229     4.782048825642    -0.084338804220
O     -0.293177050654     2.476791006095    -0.201668853392
H     -1.432111366077     1.813947777517    -1.106514958026

