# STO-3G

title

0 1
C     -0.028814905211    -0.677993329298    -3.086414165747
C      0.598750904818    -1.920139452093    -3.306432295930
C      0.522461567771    -2.533364258497    -4.572378287743
C     -0.176870421055    -1.900869864415    -5.620077712946
C     -0.798270511952    -0.654923365712    -5.401620111560
C     -0.725291476419    -0.043152718857    -4.134369712001
H      0.029595861973    -0.210855286175    -2.106565994948
H      1.148562802011    -2.396923985935    -2.498340185201
H      1.006762313803    -3.492139704488    -4.741724340134
H     -0.233351467305    -2.372831571795    -6.598343375405
H     -1.332022388441    -0.162997321948    -6.211507740823
H     -1.202677581932     0.917834764568    -3.958285980335
C      2.594282241869     1.038332692573    -1.213517389059
H      1.539744568573     1.038551058073    -1.469341790013
H      3.195841451049     1.785618243252    -1.722253575359
C      3.125726720982     0.205115638904    -0.289463034117
H      4.173798975271     0.267117193555    -0.035728259665
C      2.362262444738    -0.805680214343     0.455905544824
O      1.157481336234    -1.027807517382     0.154578304508
O      3.020358753339    -1.559332029164     1.443132963258
C      2.190027839111    -2.444236304795     2.209793775705
H      2.814988723022    -2.995322897141     2.944452513720
H      1.419743501352    -1.872622838995     2.775642332550
H      1.685343506076    -3.189947374995     1.554611153272
Pd    -0.603970336563     0.426191213201     0.982598745181
C     -1.846957988972    -1.987385782201     1.814979836913
O     -0.972835348874    -1.054475755109     2.252700896971
O     -2.186178902558    -2.971683032175     2.495624105981
C     -2.419508470413    -1.773572750845     0.370740577549
H     -3.498271352686    -1.958876874174     0.448071910601
C     -1.806292284103    -2.762451166664    -0.600621474659
H     -2.221542038587    -2.623862441497    -1.618629095469
H     -0.710001700606    -2.601663727042    -0.644152748320
H     -2.007775780586    -3.801851826149    -0.267340218321
N     -2.101572024136    -0.411997080632    -0.103322995049
C     -2.609812757538     0.284164032845    -1.071465653716
O     -2.156308337813     1.482437868127    -1.444583034219
C     -3.758692282586    -0.167820145295    -1.875236135649
H     -3.417828394801    -0.260170517570    -2.921092433657
H     -4.152816293975    -1.132602571464    -1.530449244866
H     -4.548003897736     0.601342672263    -1.803537663258
N      0.806364791349     1.664381452340     1.878236511503
C      1.617800715662     1.871056961395     2.953017021272
C      2.333477778981     3.053752646923     3.039656131397
C      2.227587276269     4.019645164962     2.052555150540
C      1.398103630312     3.783058013768     0.982216459474
C      0.692590156247     2.565706663765     0.940064265694
H      1.702617892958     1.113823182183     3.723906947386
H      2.977692014258     3.218407841321     3.887372216265
H      2.790273476813     4.946546347208     2.122756254107
H      1.268240724768     4.479943378058     0.180770720620
O     -0.098941750382     2.280013313469    -0.071598600712
H     -1.359748599209     1.859511879257    -0.949095257545

