# STO-3G

title

0 1
C     -2.614171325723     0.323062154147    -2.072996990801
C     -3.118824172656     1.312141388693    -2.940972762708
C     -3.584926110041     0.959708659108    -4.223293362233
C     -3.549991109629    -0.386367983041    -4.639032255358
C     -3.048347941297    -1.377580725960    -3.771726074635
C     -2.581879218959    -1.023620746843    -2.490059522857
H     -2.264363688062     0.593503202151    -1.081085389577
H     -3.143470624936     2.352391524858    -2.621831492828
H     -3.971134232938     1.725836195574    -4.892077926767
H     -3.910028504083    -0.659831130299    -5.628452146284
H     -3.021712565061    -2.417015788884    -4.091525462788
H     -2.189176012289    -1.785487574359    -1.820449041115
C      0.510359178521     1.292428400264    -0.930345569972
H      0.090090874245     0.367939844860    -1.317616894947
H     -0.205591520548     1.963456330478    -0.465082169061
C      1.821891149010     1.604715544996    -1.008488096454
H      2.179877718153     2.542602798663    -0.605673187725
C      2.846331317323     0.740051053127    -1.613779446630
O      4.040506050334     1.139366389163    -1.630946679935
O      2.512983540419    -0.571392299618    -2.006458023051
C      3.573994868211    -1.336809955040    -2.594872638339
H      3.191568897839    -2.341046843845    -2.877797340538
H      3.954730334015    -0.839818067929    -3.516169522290
H      4.413565269035    -1.470969743123    -1.875590059454
Pd    -0.016168410759     0.704704500565     2.394244903927
C      2.261309265003    -0.187509790156     3.846975661155
O      1.321338388597     0.784957365813     3.858784556816
O      3.031996476203    -0.415331681916     4.794414160812
C      2.369060801199    -0.980155316026     2.499248044087
H      2.648548934273    -2.012262885383     2.743414532272
C      3.440445843765    -0.364402901018     1.624097615782
H      3.548003245602    -0.930607449326     0.680134515047
H      3.170035935281     0.685721882597     1.389296090742
H      4.416412566320    -0.373284370315     2.153697706610
N      1.079955397610    -0.884250380001     1.781716745700
C      0.553780256450    -1.714257098475     0.936585584726
O     -0.634359320921    -1.532052747364     0.355344563098
C      1.234149068844    -2.960038752480     0.548069522921
H      2.188550852614    -2.702387019156     0.062149450786
H      1.388174303117    -3.573239084737     1.451170109781
H      0.602129750811    -3.515152885586    -0.170278911665
N     -1.449140613883     2.164800001165     2.761231922114
C     -1.854363687223     3.186622301692     3.567754846799
C     -3.078092641514     3.790591907229     3.327671829111
C     -3.887170923834     3.366420888780     2.286230115999
C     -3.453144399918     2.331895537283     1.491680899430
C     -2.205376203114     1.748970628127     1.779893008167
H     -1.221857043111     3.520978606195     4.382102327347
H     -3.399751192071     4.598809447037     3.963814523932
H     -4.847077387478     3.841468528046     2.101955544735
H     -4.026776023452     1.947093042489     0.673058060940
O     -1.737494911504     0.755983789855     1.053469081219
H     -1.135368419741    -0.691970269388     0.591663522992

