# STO-3G

title

0 1
C     -2.866091818328    -0.210912185743    -1.910019071029
C     -3.135177972215     0.888204326884    -2.751843374051
C     -4.107897216031     0.786305186068    -3.765966199220
C     -4.815583521995    -0.419725107470    -3.942005211008
C     -4.551198908234    -1.519435700793    -3.101143009704
C     -3.579247690228    -1.413710875365    -2.085896510331
H     -2.119606022576    -0.120282569410    -1.127496459454
H     -2.589145962875     1.821374599729    -2.616036449648
H     -4.311101735704     1.636731498822    -4.413224549646
H     -5.565483873976    -0.501036352996    -4.725745526406
H     -5.099123331231    -2.449543674494    -3.235328169902
H     -3.378883276270    -2.260492361218    -1.432824327526
C      0.638848412582    -0.801366247482    -1.612624968148
H      1.352242981879    -1.178650717285    -0.885280059834
H     -0.088860380576    -1.515863024284    -1.986580183196
C      0.603802427342     0.492191193548    -2.000374506056
H     -0.150051313934     0.825383780940    -2.699791478566
C      1.490778896289     1.543955901289    -1.484285384847
O      1.389791965158     2.710003655145    -1.949469734212
O      2.394156804726     1.242496478763    -0.447480252989
C      3.175263196749     2.341947700535     0.042290021295
H      3.847231296423     1.988633258418     0.854805366003
H      3.804684133087     2.774833406974    -0.767514275417
H      2.518403275611     3.134563817421     0.465453014706
Pd     0.795645684073     0.597627945390     1.686742602179
C      3.123006439188    -0.275917474632     3.076588344185
O      2.430724198094     0.848870944415     2.790803801713
O      4.090015648158    -0.308856730167     3.856897439535
C      2.662276848880    -1.560750484820     2.304009637595
H      2.751995617315    -2.406806924250     2.996908146407
C      3.560580561134    -1.800979828939     1.107057195876
H      3.239728569519    -2.701178053422     0.548540730030
H      3.517154573898    -0.924923032303     0.427611184380
H      4.609579802610    -1.942683334647     1.442458058515
N      1.285347883184    -1.364041756351     1.805392809300
C      0.370744341323    -2.253028731575     1.566181295014
O     -0.833229821028    -1.971322047395     1.070434005797
C      0.593569885347    -3.680990751537     1.848144926981
H      1.448325778282    -4.036538089537     1.251626369065
H      0.782068599807    -3.795160823501     2.928957522028
H     -0.310393611608    -4.256662139262     1.572954632539
N     -0.168834877748     2.440572658937     1.500660860599
C     -0.155017446289     3.775810050531     1.776332488098
C     -1.265574480881     4.542749533883     1.463766033299
C     -2.380914125374     3.969574267057     0.875400398007
C     -2.370460531869     2.620298303116     0.615356426062
C     -1.219873681176     1.885569795432     0.955564330344
H      0.718366899182     4.227871050123     2.231797273682
H     -1.253086772527     5.598900172795     1.676248383712
H     -3.248453891746     4.574727109343     0.626470488755
H     -3.196529588729     2.107923641377     0.165453031973
O     -1.148246821321     0.592884890773     0.726246807889
H     -1.046233966610    -0.999767725520     0.897044549183

