# STO-3G

title

0 1
C      0.756366798433     1.705858160525     3.320390631571
C      1.800513123903     1.119262790771     4.065171384923
C      1.671995724737     0.957628485637     5.458675899832
C      0.498421068277     1.381978210481     6.113115940484
C     -0.543631966501     1.973513911586     5.372263057993
C     -0.413551880083     2.137913683798     3.978921363765
H      0.860477363604     1.821257999839     2.244389449183
H      2.700892534065     0.784865873200     3.556266975889
H      2.481357419271     0.507151573449     6.028707860535
H      0.398734758358     1.257758656258     7.189058390324
H     -1.447650541792     2.307953550840     5.876059153397
H     -1.220627643414     2.605583974474     3.420014591158
C      0.519949954505     3.640789139349     0.074153567874
H      0.830470733306     4.036718264640    -0.889926497118
H      1.280222951457     3.636219278475     0.850651195272
C     -0.704218104323     3.108952645030     0.288666931907
H     -0.934459954683     2.689331621345     1.255458075838
C     -1.779310212760     2.999620850802    -0.710206982977
O     -1.637993614760     3.500634544353    -1.858697471010
O     -2.957966841450     2.330018178994    -0.339487664064
C     -3.864382929997     2.026815704498    -1.409124945092
H     -4.739814868957     1.473820149981    -1.005977468388
H     -4.230008494880     2.957923242980    -1.897798623423
H     -3.373214357144     1.375864673308    -2.169183077518
Pd     0.393404829510     0.358209942184    -0.918125570786
C     -1.960023574711    -1.205411618063    -0.532270479571
O     -1.393678665215    -0.352832530939    -1.414610911789
O     -3.006003507989    -1.837221116943    -0.762947193356
C     -1.239858907514    -1.304300034777     0.858157229345
H     -1.264361405289    -2.357106456982     1.165900419805
C     -1.977906590087    -0.469687877159     1.885548654513
H     -1.468608542172    -0.503953666972     2.867402311086
H     -2.024633283234     0.582413074474     1.544431707022
H     -3.013962975585    -0.849543578522     2.008009070194
N      0.134571191124    -0.774844369927     0.734404652624
C      1.185054621113    -1.059153242982     1.441062968087
O      2.382951544871    -0.507121582274     1.244873206825
C      1.141112239168    -2.039331189672     2.538336057120
H      2.151591617820    -2.140547613193     2.975336532252
H      0.452637844260    -1.669959290992     3.314858932741
H      0.816911081873    -3.014325022413     2.136335406837
N      1.074716225967     1.515504669888    -2.491523914841
C      0.779727513882     2.075175946648    -3.699113878544
C      1.732619977527     2.861045459761    -4.327538689261
C      2.965885012622     3.087663360383    -3.739818210147
C      3.229405014629     2.520265338668    -2.515415502408
C      2.230174067667     1.728251423680    -1.919109969336
H     -0.187074520160     1.901997239899    -4.157692269659
H      1.499669721446     3.305117389306    -5.281057069297
H      3.708067022841     3.708714831358    -4.233960287607
H      4.153886036543     2.661566835119    -1.995445774449
O      2.408021798048     1.196039523822    -0.728616679108
H      2.476520601659     0.163323557417     0.494919163151

