# STO-3G

title

0 1
C      2.557261475415    -1.605853955093     2.214658072015
C      2.919036085079    -2.740441042995     1.460948669127
C      4.027015608224    -3.519178068160     1.849367670320
C      4.775460216342    -3.165111859507     2.990163250874
C      4.417109678926    -2.028082448094     3.741324023328
C      3.308729682934    -1.249744706415     3.352097599162
H      1.708539948237    -0.998940330674     1.914938929097
H      2.346459811374    -3.004546435658     0.575519320250
H      4.304655450776    -4.395315304865     1.267553082164
H      5.629776567242    -3.767825909345     3.290341694845
H      4.996252944596    -1.747487532811     4.618359770822
H      3.038912733162    -0.362126143649     3.922432421317
C      1.189766313174     2.066718025854     1.018011777936
H      1.512978810821     2.494769308243     1.964747177431
H      0.156485279004     2.244763369307     0.738233453079
C      2.013306554877     1.336679481996     0.230820407291
H      1.637187178388     0.895182947489    -0.682644643844
C      3.426526109363     1.048357976568     0.524709194071
O      3.975120522775     1.545714751608     1.545821292927
O      4.137704061901     0.216429519449    -0.357872175361
C      5.442375023297    -0.184751193190     0.083319593474
H      5.901247708625    -0.850163900781    -0.678369039877
H      6.104530670069     0.699767935042     0.221324492489
H      5.376990494303    -0.750748793383     1.041073300633
Pd    -1.582494694648     0.321107861028     0.612911658924
C     -2.310326883085     2.051164849418    -1.536614353209
O     -2.265233752152     2.016538900321    -0.185215327414
O     -2.641515150579     3.051335135721    -2.194517604525
C     -1.936420820419     0.699546896764    -2.243321180087
H     -1.398283048320     0.950878728423    -3.166011551206
C     -3.181774238550    -0.088866618477    -2.589334511007
H     -2.909061995319    -1.030981493575    -3.105437920674
H     -3.735936339933    -0.338161209996    -1.660279347144
H     -3.838305996969     0.509449499100    -3.255827980633
N     -1.146003337926    -0.119512356806    -1.305644382036
C     -0.202176781808    -0.973035743175    -1.554633208197
O      0.432841646644    -1.673875483809    -0.615942788360
C      0.282771707130    -1.199833556454    -2.925127544580
H     -0.556734536069    -1.557138476341    -3.543788771135
H      0.692741804464    -0.251274109717    -3.311130282924
H      1.082808379625    -1.964310962244    -2.910566928021
N     -1.635214013931     0.450897338127     2.700769119034
C     -1.922392190774     1.202347170048     3.802023083911
C     -1.495196474718     0.768625750755     5.046612634671
C     -0.787159744441    -0.414633730817     5.181475490447
C     -0.517210807372    -1.153714918477     4.055103310311
C     -0.972790910052    -0.669665215590     2.815746699438
H     -2.473559942413     2.129939583466     3.698853333281
H     -1.717541297881     1.363793024226     5.916973632470
H     -0.449000984688    -0.750240269129     6.158179159152
H      0.036043918561    -2.071317064066     4.078551755216
O     -0.720470607933    -1.320646675970     1.695484515420
H      0.092822076855    -1.585956628166     0.333472265818

