# STO-3G

title

0 1
C      2.867389634073    -0.836520477609    -0.850742208399
C      3.014090177941    -0.766175794602    -2.252043484466
C      3.700687522833    -1.788539793083    -2.938144972105
C      4.238248626490    -2.881150722761    -2.228073736829
C      4.090882941229    -2.951710958842    -0.828009539157
C      3.406872940470    -1.928898637992    -0.140968487098
H      2.345373647665    -0.046966783032    -0.317076479828
H      2.598187009797     0.076742093066    -2.797991955501
H      3.816782312170    -1.730657081045    -4.018004059957
H      4.769877932189    -3.667441498375    -2.759423237151
H      4.506552851658    -3.792087570200    -0.276784655508
H      3.289704678439    -1.982409152060     0.939369324933
C      2.334472359131     2.355117558220     1.270100736102
H      1.616720598691     1.937615967568     0.568572678099
H      2.746354091460     3.322567230697     0.998265537079
C      2.701623682719     1.737952645405     2.417462734045
H      3.406553466693     2.196722517812     3.095780054599
C      2.215702621544     0.417480819454     2.846011612092
O      1.471000637206    -0.255995588340     2.083307280596
O      2.638000938101    -0.093144603519     4.085651907954
C      2.090883863765    -1.367494861710     4.454997928523
H      2.493014481598    -1.668011876601     5.446199393740
H      0.981024530944    -1.314795223273     4.532781401985
H      2.370567636680    -2.150322448374     3.713763530970
Pd    -0.727743482192     0.405736317288     1.036913592004
C     -0.155158265171     0.776019204947    -1.741958104012
O     -0.171287121863     1.457577845116    -0.573472445900
O      0.210411505010     1.277710624958    -2.820252757749
C     -0.651334913314    -0.706470564690    -1.657290386002
H     -0.011375117137    -1.297681455511    -2.322611215180
C     -2.091089299734    -0.824212659958    -2.109077700707
H     -2.416840343189    -1.883012795749    -2.068188456597
H     -2.741017657352    -0.224483508385    -1.438212402755
H     -2.196079859005    -0.453277652708    -3.150261739077
N     -0.598040398762    -1.143825515111    -0.255661055883
C     -0.299807817349    -2.303893915992     0.235493423541
O     -0.293022859011    -2.579383015096     1.543063044232
C      0.053502870746    -3.436500234875    -0.634316125404
H     -0.787799223204    -3.631092524508    -1.318770943231
H      0.970456357129    -3.170919824024    -1.189041023841
H      0.248017108541    -4.330612152188    -0.013919735624
N     -0.850024094640     1.699766357095     2.657369843113
C     -0.619537784207     2.958398112860     3.124564709364
C     -0.704386321971     3.197317881033     4.486389347802
C     -1.025676177118     2.176896127027     5.366324869531
C     -1.249403597537     0.916841758748     4.864545376217
C     -1.142106639556     0.722182256507     3.473918490739
H     -0.371716641855     3.757576641878     2.435706545442
H     -0.522021531399     4.191605588094     4.858747945025
H     -1.095201170461     2.368097064951     6.433697685038
H     -1.495401724441     0.078703279040     5.482363673309
O     -1.299539714240    -0.478764561450     2.946282607606
H     -0.548691347577    -1.811648972536     2.142293623321

