# STO-3G

title

0 1
C     -1.420317579880     0.310348599095     3.789273958139
C     -2.308395183413     1.366773704922     4.075544502462
C     -2.935715810104     1.445847258204     5.334677737774
C     -2.674853430294     0.466602813551     6.314181004637
C     -1.781732233223    -0.586747085774     6.033593769012
C     -1.155252280880    -0.663113619519     4.773459009024
H     -0.954259331672     0.246445636531     2.812358999458
H     -2.498600781547     2.125275174447     3.318993572318
H     -3.617723462073     2.265033450434     5.552489411677
H     -3.157559176655     0.526869563579     7.287167326960
H     -1.571770522246    -1.339181251206     6.790812352930
H     -0.458176347492    -1.473041426395     4.565845119000
C      0.521824334922    -1.208478296178     0.797637536885
H      1.375292869964    -1.563838667010     1.369836538041
H      0.703821109962    -0.386489365173     0.111898281256
C     -0.726562447145    -1.708112421491     0.930311576926
H     -1.538083342236    -1.274201816733     0.360544430956
C     -1.117202589674    -2.781208873353     1.857753967354
O     -0.249916733221    -3.326869401886     2.594012151625
O     -2.473227860846    -3.143835337293     1.934307595081
C     -2.811354216156    -4.088312095398     2.959288140817
H     -3.902779680987    -4.293701042385     2.924635254828
H     -2.270465005982    -5.049812486446     2.806943509579
H     -2.567377942882    -3.679698512849     3.966565668586
Pd    -0.340328598908     1.693555583094    -1.050683419711
C      1.791219074798     2.318051717452    -2.831997396076
O      0.475607196346     2.001660939627    -2.834130102989
O      2.403920617407     2.732431088994    -3.829821915736
C      2.527986576512     2.051443723185    -1.474598323360
H      3.300022103087     2.822062458476    -1.357718820310
C      3.183371788522     0.684273420386    -1.500480462149
H      3.679374899663     0.466671848683    -0.534719779352
H      2.417602388894    -0.095439440957    -1.693275229659
H      3.943901247443     0.645496316912    -2.308917711079
N      1.535911573473     2.053810242774    -0.379596214298
C      1.712040629303     2.329610737768     0.876573249750
O      0.759167538150     2.232963704901     1.800629733498
C      3.008052749186     2.806988648914     1.386220977139
H      3.775100114204     2.039467463643     1.198292702429
H      3.253039001806     3.754710099768     0.877795618147
H      2.931198508248     2.986779927488     2.475661947158
N     -2.363677587445     1.302178880282    -1.314526092888
C     -3.383469260479     1.090963168442    -2.194337096696
C     -4.642236156849     0.781654405595    -1.705522609544
C     -4.870955453501     0.686328135327    -0.342430128707
C     -3.825274617558     0.913068817568     0.520154297654
C     -2.568384604125     1.232326729554    -0.024916561548
H     -3.204621012419     1.157760842833    -3.261345996379
H     -5.448607109816     0.608563409820    -2.399086282039
H     -5.857084590249     0.432943746387     0.037525403574
H     -3.924354348234     0.836638771509     1.583957607586
O     -1.522489112055     1.431340499210     0.748088858011
H     -0.148396957237     1.920257088049     1.501232579659

