# STO-3G

title

0 1
C      3.319338224801     1.216341176208    -1.212127960103
C      3.281136835529     2.439415194943    -1.914407795616
C      4.461226831889     2.987414697074    -2.454334551353
C      5.688006273271     2.312885923176    -2.290935023325
C      5.730107161841     1.090671622069    -1.590664277380
C      4.547103633690     0.543413725372    -1.054030320806
H      2.400219406810     0.800424716525    -0.812758124644
H      2.332513656105     2.960135163972    -2.043623016818
H      4.425611866057     3.930484099214    -2.995453645454
H      6.600819622716     2.734932909020    -2.705453483684
H      6.676369069648     0.568718940575    -1.465794096330
H      4.579472278291    -0.402617355558    -0.517845310438
C      0.987741869342     1.414450410722     1.806670209962
H      0.160160375798     0.835417056564     2.207109012954
H      1.979399249290     1.143624266986     2.155632334036
C      0.808852440133     2.382973162015     0.882364188137
H      1.659760420816     2.911970021723     0.480605042384
C     -0.486711485269     2.748615526915     0.290976881404
O     -1.525980189918     2.103145753002     0.602066591467
O     -0.526181867429     3.788599461383    -0.654359190511
C     -1.816411333059     4.080346070530    -1.209124979015
H     -1.723059682555     4.906998320163    -1.945445913186
H     -2.230728527378     3.192139387409    -1.736242515071
H     -2.526859956238     4.399092497182    -0.413121188970
Pd    -1.666032368596    -0.240197806956    -0.387628072363
C     -3.771330275254    -1.250265935082     1.241917061767
O     -3.563101819082    -0.654731457914     0.046696022548
O     -4.877657492695    -1.674134928472     1.619033756954
C     -2.508418531001    -1.351538065509     2.167557591057
H     -2.576309992122    -2.306911098231     2.702921790797
C     -2.493734341987    -0.218987149860     3.172939475985
H     -1.607255992096    -0.296463841070     3.832228123424
H     -2.459054147334     0.752085326225     2.634927521130
H     -3.411320066428    -0.252493558675     3.797078514939
N     -1.291761101816    -1.230350959876     1.341973780383
C     -0.124744023992    -1.764601553390     1.517197628990
O      0.920621934769    -1.552324108685     0.717650927707
C      0.141567862642    -2.672296944259     2.644795837807
H      1.198074868510    -2.996743511943     2.609772414727
H     -0.047758168042    -2.131165549832     3.585679665367
H     -0.515804701603    -3.554153875575     2.549700124785
N     -1.604074617110     0.511109298451    -2.332669794528
C     -2.315098267330     0.841078596601    -3.447249602586
C     -1.635321548867     1.135567152453    -4.617928674915
C     -0.251582666076     1.084174961771    -4.666231485358
C      0.436834805546     0.733379821447    -3.529763331515
C     -0.299411489634     0.446750616593    -2.365058917628
H     -3.397497336876     0.883334477565    -3.409108172620
H     -2.194846493739     1.401555703074    -5.499372968620
H      0.279471014325     1.312149699213    -5.586458081913
H      1.505269710957     0.664251136976    -3.495858425892
O      0.304147483195     0.102133630814    -1.244791726034
H      0.775368803995    -0.924347005082    -0.059005732952

