# STO-3G

title

0 1
C      3.351980785842     0.912290587839    -1.439747594512
C      3.937748373526     2.107136423299    -1.904066130168
C      5.326845619893     2.309863381597    -1.781879947255
C      6.134222028283     1.314722642209    -1.195418345393
C      5.551052922822     0.118068686707    -0.732675384650
C      4.161838453513    -0.083635566342    -0.855580844242
H      2.283042336302     0.747024196901    -1.544074491097
H      3.314890701742     2.877404624064    -2.354785385061
H      5.776024102202     3.233806085743    -2.139538227342
H      7.206756778808     1.470008310711    -1.100860907846
H      6.173899587650    -0.651248506383    -0.281440445117
H      3.709486580118    -1.005572033632    -0.497150302222
C      0.829823972242     1.761454478248     0.968506200685
H      0.655957028361     1.801187394159     2.041025615454
H      1.667705072619     1.155469311219     0.637738243997
C      0.056362460516     2.415772579205     0.071433151439
H      0.273184033272     2.322345095953    -0.984549450235
C     -1.110359705003     3.248316117909     0.403522830844
O     -1.468450186470     3.380668895934     1.605735409116
O     -1.839216408326     3.834718466681    -0.645578957575
C     -3.036690971392     4.526855919540    -0.265478475663
H     -3.525464424114     4.942591098856    -1.172588616972
H     -3.754522994429     3.831524975726     0.227149696843
H     -2.805574770805     5.370536856545     0.423747441456
Pd    -1.496607155732    -0.301071807266    -0.610586239674
C     -3.350890352536    -1.046002597104     1.417259121048
O     -3.303694856935    -0.450355438723     0.204094437663
O     -4.404673062188    -1.394660234336     1.976275009557
C     -1.959868986520    -1.210299102443     2.122576372836
H     -1.989218067999    -2.139319591975     2.705335398781
C     -1.710419106538    -0.041414627421     3.054048360094
H     -0.722878202762    -0.130879903385     3.545390899662
H     -1.737171125948     0.906421312962     2.477303172835
H     -2.497539488750    -0.004444711970     3.836324281401
N     -0.897410887204    -1.202339474816     1.095755268687
C      0.277624926382    -1.746232053638     1.136346778756
O      1.184201382471    -1.630646907493     0.162920524801
C      0.712173703577    -2.565885252751     2.279178361429
H      1.738968758235    -2.932734154561     2.094951579694
H      0.704558617052    -1.943773594179     3.187671019221
H      0.028440800645    -3.427106133798     2.376695031449
N     -1.708278950113     0.517723027372    -2.506096947470
C     -2.558250367032     1.059179821040    -3.424098952604
C     -2.064559799008     1.428426391156    -4.665054591269
C     -0.725947776590     1.255379960330    -4.976615118396
C      0.107426904119     0.707945366483    -4.030245847060
C     -0.443897608402     0.343803470074    -2.787996464924
H     -3.605054540165     1.199115499369    -3.180198765460
H     -2.734839815984     1.857454813068    -5.391382391021
H     -0.341759411005     1.548542764787    -5.949953878797
H      1.152851610496     0.546990644850    -4.198446446349
O      0.309382487873    -0.163330140146    -1.835494516784
H      0.917936210976    -1.096341551562    -0.648752423619

