# STO-3G

title

0 1
C      2.398681101565    -2.383613733567     0.520686509348
C      3.389024571173    -2.218905061680     1.509862311019
C      3.496475740906    -3.144157574005     2.567145368891
C      2.611551926035    -4.238713575483     2.637455456126
C      1.622375385411    -4.408350110684     1.647777987416
C      1.517651646237    -3.481996959117     0.591134986908
H      2.322551376145    -1.663680521060    -0.289172601025
H      4.069192470368    -1.371564713528     1.456036391243
H      4.261792961281    -3.013270856232     3.328603394296
H      2.694514710161    -4.954309468487     3.452293829670
H      0.944115730663    -5.257300892132     1.696481931521
H      0.755331705874    -3.618409867932    -0.174024349753
C      1.750822739722    -1.893593678661    -2.969451828017
H      2.837582921355    -1.899089052672    -3.016757749726
H      1.308593379021    -2.486406966738    -2.174895068729
C      0.971402863155    -1.150101433328    -3.785340261806
H     -0.099467146094    -1.140629752649    -3.635981575489
C      1.468598104845    -0.267202256299    -4.852661896358
O      2.707353787251    -0.174683888362    -5.075306288436
O      0.536591120719     0.476508141770    -5.598443597342
C      1.084946109238     1.344537520808    -6.600347329912
H      0.258557683464     1.875959844221    -7.119586956821
H      1.753242932340     2.107131171834    -6.139579394105
H      1.655421237123     0.762344432878    -7.359291670394
Pd     1.258568217003     1.042864468877     0.823094064156
C     -0.242871340623     1.181641971476     3.238465978033
O      0.772764375033     1.799213153677     2.595308622220
O     -0.751068877660     1.598863125759     4.293448803503
C     -0.717436258605    -0.159755933855     2.581499653373
H     -1.800005709965    -0.240407875384     2.740992698621
C     -0.024802857924    -1.341043809488     3.229620172676
H     -0.376173642689    -2.291998946011     2.784182670492
H      1.071260812964    -1.264763729991     3.070907005303
H     -0.233771835401    -1.356491353707     4.319757799095
N     -0.335069775372    -0.154024513308     1.155545902571
C     -0.904943791318    -0.749981905703     0.159030360957
O     -0.435344712312    -0.734289724658    -1.091411594736
C     -2.159918348532    -1.500400954349     0.326741241307
H     -1.991903030018    -2.316895082262     1.047422002597
H     -2.935267741865    -0.801869352047     0.684075581816
H     -2.469712741167    -1.925374398308    -0.646449442748
N      2.877165682486     2.111395352683     0.064153242827
C      3.789537248479     3.106013999536     0.255990455727
C      4.697812552089     3.392092968531    -0.750515942840
C      4.685484183403     2.681724067088    -1.940205071582
C      3.751748395841     1.687438122154    -2.105819028352
C      2.849757657560     1.437480608060    -1.055667596369
H      3.801902950166     3.660920918542     1.187054475895
H      5.420925972578     4.176559312049    -0.600341469427
H      5.400536218226     2.905564228113    -2.727294215773
H      3.686648671828     1.094153000856    -2.996687102604
O      1.932728796630     0.495316715289    -1.152487474352
H      0.445427224995    -0.273115614613    -1.248843196131

