# STO-3G

title

0 1
C     -2.691896523221    -2.031734741967    -0.185727710513
C     -3.000093061217    -3.401140955228    -0.050271039475
C     -4.063948275767    -3.962240413068    -0.784419610996
C     -4.824045275737    -3.155111316788    -1.654372347371
C     -4.523479534503    -1.784400480583    -1.783182666266
C     -3.460937778093    -1.223123387749    -1.047232736379
H     -1.869784986309    -1.594025775413     0.374095974719
H     -2.411856059416    -4.020395087221     0.622606947584
H     -4.301149078955    -5.018054736630    -0.674850869835
H     -5.646150003592    -3.587407469230    -2.220310592900
H     -5.114881830846    -1.156173879019    -2.445602519983
H     -3.238207925816    -0.162784942885    -1.139801659477
C     -1.313594108716     0.750768073728     1.166648742596
H     -2.392003440167     0.735251648611     1.305520756026
H     -0.749286478784     0.072906920157     1.801859023665
C     -0.692659737925     1.534190731500     0.253398844954
H      0.382752747050     1.490775969587     0.152078156091
C     -1.374931611646     2.457150076282    -0.668846860370
O     -2.635007900371     2.490981396630    -0.709471701317
O     -0.596954634862     3.192727292526    -1.578611712899
C     -1.319610231980     4.026949093696    -2.494697703696
H     -0.599366012444     4.556140704660    -3.155551774557
H     -1.995665907736     3.417435984786    -3.136220165557
H     -1.916742999086     4.791283397039    -1.947536467637
Pd     1.626992495214    -0.866004912798     0.440737960777
C      2.212812719468    -0.622893931113    -2.336758873915
O      2.487664408475    -0.038780029495    -1.146763905902
O      2.784195875265    -0.322515023349    -3.398355727553
C      1.059327745387    -1.682789213760    -2.302534480016
H      1.324969377757    -2.481286937850    -3.006418084517
C     -0.249436157715    -1.051928102364    -2.733244859567
H     -1.055406976115    -1.810408891141    -2.771803162319
H     -0.540410184737    -0.264805069682    -2.008708621463
H     -0.141978407644    -0.597084017520    -3.740366648524
N      0.887999308829    -2.161681286642    -0.917047804301
C      0.422434498833    -3.296016300878    -0.496576645691
O      0.254057133328    -3.597496565506     0.791827059681
C      0.054416467336    -4.372206610621    -1.430140311101
H     -0.763658866122    -4.015592502195    -2.077405361916
H      0.946075259883    -4.645986764141    -2.018043138087
H     -0.294455605979    -5.252571060657    -0.858775996585
N      2.231330341270     0.178935814944     2.138225763964
C      2.988613009676     1.191437490894     2.648777262249
C      3.051329395089     1.360715127691     4.022164136082
C      2.357920241100     0.516686590415     4.873814006035
C      1.605644380471    -0.497476216182     4.330316023671
C      1.578230850172    -0.630496320487     2.930049845659
H      3.528909297910     1.855408614910     1.983784270510
H      3.647324454910     2.162117819401     4.427045987498
H      2.407714526174     0.653833818325     5.950730763402
H      1.043434632464    -1.187378065458     4.925322741188
O      0.865820908473    -1.577227671810     2.351466322646
H      0.470053500658    -2.882685751549     1.469284848827

