# STO-3G

title

0 1
C      2.953306926495    -2.435056755423     0.708333437019
C      3.453385121999    -1.685727174207    -0.376818370881
C      4.235456556431    -2.312945787785    -1.367331324129
C      4.517946447471    -3.690689828666    -1.273010237321
C      4.020097801647    -4.440093894871    -0.187726270268
C      3.237864564122    -3.812424124571     0.802608395601
H      2.345816698029    -1.954774440235     1.469695433014
H      3.237225905422    -0.621598343663    -0.448062322601
H      4.619222229692    -1.730681384809    -2.201375453038
H      5.122800619180    -4.174801577574    -2.036323174610
H      4.241295649458    -5.502388596219    -0.113187499759
H      2.850712654255    -4.387977458171     1.640067233328
C      1.224491028476    -0.959192553870     3.830494785327
H      0.874066365384    -1.490545790691     2.948926834537
H      1.042123823927    -1.458024323923     4.776804233388
C      1.817593681905     0.255866073369     3.765579515768
H      2.131022699856     0.761680833217     4.666575345000
C      2.048452883119     0.997642018557     2.518486526175
O      1.687032934248     0.491701591398     1.422674944291
O      2.649251588200     2.267051956455     2.577465235273
C      2.771701166293     2.954027173581     1.322686795436
H      3.265652113119     3.935804112939     1.483000557543
H      3.388156427137     2.367015334811     0.604211535316
H      1.769919282845     3.139264960540     0.872011741419
Pd    -0.625578474273     0.644973898823     0.705533798388
C      0.653778036808     0.976564684479    -1.807324446702
O      0.255636360769     1.704780721444    -0.739101012926
O      1.406859253606     1.414900340695    -2.695547108460
C      0.027174021339    -0.458958654305    -1.906965300953
H      0.771580134567    -1.108390011547    -2.382060423970
C     -1.229090990096    -0.428734078808    -2.752662714027
H     -1.654548041632    -1.447062591751    -2.847185530159
H     -1.982355993967     0.229837782600    -2.271802826134
H     -0.996923511358    -0.040086991646    -3.766475918945
N     -0.359686256981    -0.911269161623    -0.559427186754
C     -0.363669132230    -2.109223460425    -0.065808480587
O     -0.696776816560    -2.394638173465     1.196564165629
C     -0.006976644966    -3.279938891701    -0.883827043411
H     -0.706815241948    -3.346055124936    -1.731475752301
H      1.033152275450    -3.161880747515    -1.232152342433
H     -0.078789961660    -4.195471437106    -0.268186846389
N     -1.017362733316     1.901034578013     2.331731345475
C     -0.906238795521     3.146599718154     2.873338271056
C     -1.355363700473     3.363093123997     4.165640852670
C     -1.917422353081     2.333728996735     4.902319373459
C     -2.019138058254     1.089164446568     4.328190733766
C     -1.545096082905     0.918947553020     3.013737089568
H     -0.465134035581     3.952365395789     2.298221138011
H     -1.264426993069     4.346290410039     4.596662691593
H     -2.270341593275     2.506757191455     5.915328305381
H     -2.439699505708     0.245988193284     4.835034745214
O     -1.600955559291    -0.255870774069     2.422982058914
H     -1.017216189040    -1.622869913508     1.763613344005

