# STO-3G

title

0 1
C     -0.352378183633     1.300886360507    -2.511512735381
C      0.245364410667     1.614551154841    -3.749166155914
C     -0.362460492248     2.546301596433    -4.614527371195
C     -1.570771036696     3.167315462421    -4.241106474401
C     -2.168852922293     2.853876474106    -3.003623853950
C     -1.563737085708     1.919794477357    -2.139499105749
H      0.105992821369     0.572798576998    -1.847921502289
H      1.183215401854     1.144439725409    -4.041241983702
H      0.104845115942     2.788533355805    -5.566954071223
H     -2.039015092314     3.890284925304    -4.906083839488
H     -3.100840016846     3.334074814198    -2.713173714882
H     -2.027857118441     1.655313456260    -1.194002141196
C      2.616935023010    -1.360022233354    -0.778088519165
H      2.794894474488    -1.288940501375     0.292878022055
H      2.371169299888    -2.343946508530    -1.163892894161
C      2.680219957055    -0.297810059736    -1.612124291975
H      2.477541700726    -0.440736929575    -2.665881460240
C      2.991704743844     1.082302731035    -1.208487963848
O      3.127549486927     1.367378110412     0.012773602730
O      3.080548934975     2.068178364801    -2.205412187835
C      3.173763673244     3.421886144051    -1.741735903947
H      3.227135782789     4.106587806333    -2.615311246712
H      2.273742728323     3.695733756801    -1.144978665157
H      4.089245203755     3.569044564489    -1.125113144090
Pd    -0.632589276049    -1.850800027727    -0.698110178605
C     -1.667882642528    -0.237254792570     1.409150100207
O     -1.781884190291    -0.427384273707     0.077025397260
O     -2.416346310061     0.510883062457     2.061825744834
C     -0.474865098773    -0.985140775846     2.094455232112
H     -0.850243091143    -1.339125014404     3.062468154681
C      0.684560745664    -0.033601537601     2.313852137431
H      1.534715496210    -0.552186399238     2.799021804916
H      1.026155098442     0.369772809857     1.337447265421
H      0.366986267195     0.812720163956     2.958686957687
N     -0.005393112198    -2.079904001774     1.218845952535
C      0.695156525583    -3.133427383349     1.506615976208
O      1.095272487095    -4.026466244209     0.600797344342
C      1.143966537834    -3.466093886416     2.869903274844
H      2.246923278931    -3.515751546038     2.856002154901
H      0.818180018039    -2.725313170218     3.611977872412
H      0.730974459995    -4.457215794097     3.130147680562
N     -1.047763043533    -1.951756153355    -2.722679892722
C     -1.732760810529    -1.405775566168    -3.768077382313
C     -1.549617952473    -1.928505961706    -5.037896434966
C     -0.686828684523    -2.990677547903    -5.250770382130
C     -0.009788000213    -3.518490655346    -4.176489839750
C     -0.230504642511    -2.953534826432    -2.906611759075
H     -2.409832214297    -0.575424387575    -3.603504818348
H     -2.086714900470    -1.494625823238    -5.865043904505
H     -0.545211143041    -3.396549924068    -6.248751293490
H      0.676875282253    -4.334504020165    -4.265646919209
O      0.414456768123    -3.394936995874    -1.845305207465
H      0.840958650148    -3.868035166245    -0.361956135463

