# STO-3G

title

0 1
C     -0.427855802872    -3.322979645718    -1.045478647271
C     -1.226856142489    -3.932225906130    -2.038793934665
C     -0.820973029273    -5.144595840904    -2.631332847759
C      0.386016219979    -5.754011432479    -2.231566793911
C      1.186262262706    -5.150682712115    -1.240429420839
C      0.779920589019    -3.937927116885    -0.647683107693
H     -0.781594271825    -2.399956563668    -0.593047143806
H     -2.155652108833    -3.451824102553    -2.335472462831
H     -1.439915127991    -5.610478648705    -3.394388654214
H      0.698844620597    -6.691205160117    -2.686218085781
H      2.115025410280    -5.622850619555    -0.928880138666
H      1.393722875662    -3.480767317290     0.124719143482
C      0.967738845497    -0.655785779600     0.599797369989
H      1.237872681233    -1.021563045883    -0.387907551766
H      0.115312051927    -1.147539963231     1.060155523079
C      1.613459890405     0.364273121796     1.205398937894
H      1.290033495894     0.705541184143     2.177369495269
C      2.726230016474     1.123606027997     0.612329610545
O      3.123803354664     0.851886896558    -0.557087491896
O      3.376931283277     2.088439155309     1.399357194986
C      4.367273676120     2.881295991350     0.730524301706
H      4.796995737562     3.612681463089     1.448169774624
H      5.193522043044     2.243425814843     0.343998101737
H      3.912595533601     3.455065124731    -0.108745648337
Pd    -0.979855277302     1.253654122210    -0.828674658793
C      0.889216446550     3.390526676654    -1.309577682774
O     -0.033506560125     2.976290805687    -0.425978011607
O      1.623868176052     4.383782787893    -1.141151776236
C      0.982433550164     2.538920272153    -2.620706731925
H      2.045464062400     2.477354559551    -2.890784067736
C      0.222312111653     3.205466889398    -3.748263983871
H      0.318402772134     2.611322495027    -4.678921731757
H     -0.852666549791     3.273728203034    -3.478798042962
H      0.621028274371     4.226085202958    -3.927391209305
N      0.352181208696     1.226611714198    -2.395173717312
C      0.687571083508     0.104001804233    -2.923542746210
O     -0.133116620165    -0.951571888774    -2.753861240235
C      1.890047732734    -0.062861532165    -3.763276192487
H      1.940574668182    -1.099747936135    -4.138169301236
H      1.820389308280     0.632538097430    -4.615979111133
H      2.779224074720     0.158216512649    -3.143614186410
N     -2.201564164715     1.147046537339     0.779632306857
C     -2.586587367834     1.820286043132     1.897932144302
C     -3.471791720463     1.213806656890     2.774179995884
C     -3.964697810373    -0.056293734838     2.520366532970
C     -3.556817962729    -0.711968103078     1.382771307732
C     -2.657787482654    -0.057782486086     0.516270641707
H     -2.199786833333     2.813247627627     2.096356493178
H     -3.779182466016     1.743090252562     3.660585438188
H     -4.660366315415    -0.526856499065     3.209696199984
H     -3.893844046146    -1.693166285047     1.120595776888
O     -2.213276334034    -0.627719885072    -0.571455805974
H      0.233499739689    -1.832902945717    -2.518126240026

