# STO-3G

title

0 1
C      2.611054228027     1.737016727738    -1.801253566717
C      1.828544837570     2.699831064974    -2.469660948590
C      2.434906313558     3.842799631562    -3.026451863111
C      3.828457464119     4.021446536280    -2.917417200052
C      4.612498757598     3.057731342015    -2.251332195226
C      4.003799460321     1.916145736902    -1.693082886572
H      2.138242937876     0.862461034821    -1.362277472768
H      0.752622022245     2.556535916138    -2.543075746066
H      1.828339821957     4.585098567308    -3.539585305208
H      4.299406561723     4.902619640587    -3.347124567868
H      5.688058568232     3.195847078162    -2.167551593603
H      4.605353691129     1.173653669666    -1.174392577940
C      1.852409365084     0.158946812033     1.414484538383
H      1.633894378787    -0.309279920350     0.458586236525
H      2.506572474805    -0.401826898827     2.075195813002
C      1.349706052387     1.365855104878     1.762475516103
H      1.603907013808     1.813137323886     2.712314001072
C      0.439388897265     2.159938498047     0.922922499285
O     -0.109774375711     1.622919042196    -0.076290203312
O      0.001151011940     3.405801748182     1.403994202614
C     -0.946531658167     4.093787932625     0.573852523960
H     -1.217074720481     5.062661823577     1.045818343150
H     -0.511971482325     4.304468475489    -0.429974590147
H     -1.878830167721     3.494611143597     0.451906656410
Pd    -1.268638341458    -0.406541721421    -0.602629890138
C     -3.687226000432     0.172098356806     0.796540494994
O     -3.083462489546     0.383510487407    -0.394071960224
O     -4.867998984673     0.483428993837     1.030362998258
C     -2.780642558841    -0.451014373201     1.912891289225
H     -3.397499860387    -1.174348837207     2.461101193099
C     -2.314586152163     0.626578916906     2.870800206797
H     -1.614265333204     0.214507105331     3.621991787038
H     -1.798678648644     1.425074183025     2.304797528688
H     -3.187084743336     1.069716774387     3.395218991671
N     -1.590900208060    -1.067648942347     1.294839510257
C     -0.881584130328    -2.067985477292     1.716432936888
O      0.173037707124    -2.565534365451     1.072563011257
C     -1.202370735167    -2.765050092823     2.973942326727
H     -0.471309125343    -3.578775877419     3.135866715538
H     -1.136710223221    -2.046793870193     3.805448677874
H     -2.214656967321    -3.196977340325     2.892125615268
N     -0.694388062946    -0.182037745792    -2.592396499254
C     -0.986263666751     0.366304450004    -3.804528843855
C     -0.107502565888     0.179517148675    -4.858841033759
C      1.053165010428    -0.557220681577    -4.690427448325
C      1.313750539716    -1.108214256689    -3.458438210671
C      0.396086885909    -0.877527678885    -2.415917582013
H     -1.893649857532     0.944293430943    -3.935322527696
H     -0.331311117248     0.619550067070    -5.816031662224
H      1.745411407049    -0.695773089897    -5.516290523138
H      2.196009211285    -1.676454860030    -3.251623659768
O      0.623025149713    -1.349247924932    -1.205433162089
H      0.409096563013    -2.149938240079     0.183785798894

