# STO-3G

title

0 1
C     -0.200316100425    -3.192211891273    -1.052143565705
C      0.778603742893    -3.904929057914    -0.327117088549
C      1.238807675714    -5.151199267018    -0.798781057303
C      0.722523757216    -5.688896865763    -1.995364827730
C     -0.257300177074    -4.980974019615    -2.720628907864
C     -0.718438932826    -3.734640096156    -2.249068782112
H     -0.587603313420    -2.235406205985    -0.712845200602
H      1.173761749445    -3.494913438366     0.598764715119
H      1.990563757965    -5.700534777246    -0.236564351748
H      1.076425762775    -6.652193190652    -2.355731791182
H     -0.662830745610    -5.398281579039    -3.639484019091
H     -1.485560571154    -3.183285180745    -2.787142365387
C      0.349397567355    -0.497432553420     1.428171945881
H      0.235559681099     0.128355814438     2.307453498989
H     -0.435619534329    -1.230295549617     1.253194561319
C      1.357464349580    -0.347360632355     0.541863980008
H      1.386368000973    -0.969431128107    -0.342290804277
C      2.422594588875     0.660918552194     0.637955921460
O      3.249525856173     0.751897314593    -0.311720932516
O      2.555916186098     1.435795733542     1.803681606251
C      3.538736980021     2.479097293264     1.754313752446
H      3.540444058696     3.027408783351     2.720590981987
H      4.556480809718     2.060372807445     1.587635656119
H      3.298857092078     3.210344964120     0.949315298952
Pd    -0.856711037488     1.319573094289    -1.067104377740
C      1.052350160598     3.469505243655    -1.164743107916
O      0.031179864105     2.999915128821    -0.429416653375
O      1.746114689628     4.457469909083    -0.855078206376
C      1.316576250941     2.686190606801    -2.497317631000
H      2.402611216658     2.677614080448    -2.660144746413
C      0.641694087031     3.371284079103    -3.666913612430
H      0.853667057789     2.822621134195    -4.606240689519
H     -0.456393724031     3.386579890663    -3.503274120649
H      1.012219071626     4.413341107202    -3.764553762913
N      0.722662791871     1.341617296475    -2.383206019551
C      1.166210219382     0.249862955363    -2.894473498691
O      0.400393956213    -0.853734920954    -2.778489732147
C      2.437200532387     0.167978413725    -3.642060380334
H      2.579630536357    -0.853192860565    -4.034724711343
H      2.393089709539     0.879964816045    -4.482961991812
H      3.263897141720     0.423540575854    -2.953231050395
N     -2.382556679690     1.178165360874     0.256923556495
C     -2.967012085429     1.794702216975     1.320116552273
C     -4.002090247153     1.153610806309     1.981270687572
C     -4.443537714596    -0.093922520642     1.569482136489
C     -3.831802746685    -0.693043294161     0.493810757289
C     -2.784576991606    -0.005094582773    -0.151639362485
H     -2.621068153263     2.770259749272     1.641901366001
H     -4.467633568662     1.638266315407     2.823131839747
H     -5.256744889459    -0.591885970840     2.090322293693
H     -4.113351690858    -1.656024531041     0.121476431978
O     -2.135961235370    -0.526217737936    -1.159538971569
H      0.815497827776    -1.736352748872    -2.694410153448

