# STO-3G

title

0 1
C      1.668384132389     2.413442594459    -0.991391844599
C      2.877728283855     3.067344928371    -0.643307327572
C      3.276994597508     4.252047286614    -1.296530824184
C      2.468154656548     4.820971542356    -2.299332847168
C      1.260690395717     4.186603908723    -2.649486109938
C      0.869563072448     2.992510848639    -2.008404822829
H     -1.369230959068    -0.240438887544     2.401752642686
H      3.517693433154     2.652699818883     0.132727059234
H      4.215151532364     4.729477949953    -1.017746502511
H      2.772064164768     5.739296456028    -2.797334403785
H      0.623255683854     4.613952396748    -3.422133321080
H     -0.055700559088     2.508816034929    -2.310795867542
C      1.240498383568     1.523433411130     1.670756435789
H      1.976730337303     1.096329486573     2.363360707557
H      1.532106289160     2.571473837914     1.527798255631
C     -0.147580790778     1.608965601230     2.330495433783
H     -0.123044682043     2.237899729662     3.222071816217
C     -1.271211067299     2.034394380546     1.450719004062
O     -2.150243768055     2.819645771985     1.901671020840
O     -1.219877379655     1.709127966804     0.080181388837
C     -2.427652039432     1.958377546553    -0.652817280775
H     -2.305948730858     1.612592320876    -1.701567624751
H     -3.278943973523     1.392423873448    -0.209908978093
H     -2.668090856298     3.045595476688    -0.664283803448
Pd     1.239018750344     0.618152736918    -0.208292384982
C      0.215567038155    -1.322657876336     1.324634809043
O     -1.032043262088    -1.149575816686     0.937441581370
O      1.206304345568    -1.679023513473     0.616451587954
C      0.414689219149    -0.975023429140     2.833622160722
H      1.427839686793    -0.639487906725     3.035529711774
C      0.066927464507    -2.157078253092     3.723920304991
H      0.280153638157    -1.914828497864     4.785232166090
H     -1.008011013774    -2.409062915450     3.611110147964
H      0.679159410792    -3.037025940370     3.437809122031
N     -0.607241194404     0.149506405966     3.029161916373
C     -1.002265582661     0.469511321086     4.403575301414
O     -0.190204807027     0.620558724035     5.306977258502
C     -2.452241806763     0.617947567989     4.638740938990
H     -2.615038495145     0.857808134582     5.703758327392
H     -2.816259342301     1.438211877003     3.998607917902
H     -2.944142807478    -0.331614248845     4.369310606591
N      0.916125058747    -0.231672971608    -2.135955416878
C      1.878190886569    -0.049873546910    -3.094518858975
C      1.627097645503    -0.404121826484    -4.403608045421
C      0.414409514387    -0.951282098772    -4.757743846087
C     -0.525701847583    -1.131824823229    -3.778538158030
C     -0.228666149220    -0.762462893518    -2.447877269497
H      2.833908101884     0.384568840020    -2.824918509866
H      2.388187291654    -0.250484460844    -5.150965999151
H      0.209566053983    -1.234956047468    -5.786672321103
H     -1.485639485287    -1.561970924898    -3.985086814637
O     -1.230958475966    -0.999265904773    -1.614249581047
H     -1.097533237430    -0.978747481218    -0.593205970535

