# STO-3G

title

0 1
C     -0.947450445819    -2.044244682550    -0.858356312922
C     -2.109000286497    -1.846118743054    -1.659356566033
C     -3.363391561705    -2.320399129309    -1.205240106378
C     -3.452327532573    -2.994435204689     0.023746753135
C     -2.296442550019    -3.195068735630     0.819462841144
C     -1.050580657102    -2.727669390823     0.384914968137
H      0.038014245448    -1.817174939048    -1.250609477907
H     -2.006370435473    -1.400471688783    -2.644734613611
H     -4.247266043222    -2.186737053220    -1.823888925908
H     -4.411703540707    -3.377842699072     0.364866408953
H     -2.376334319136    -3.720270117065     1.768239133732
H     -0.151682253515    -2.871485629292     0.978018468920
C     -2.065288382721     2.295047178232    -1.142114437797
H     -2.994089140638     2.414162796388    -0.594232137469
H     -2.123355112479     2.157085215971    -2.216728459889
C     -0.823974119626     2.600251028788    -0.550790546374
H      0.061128386871     2.638780103842    -1.165650720121
C     -0.650483754880     3.136596957588     0.810707253582
O     -1.663913285720     3.367146065904     1.524895418321
O      0.628850007685     3.563390584525     1.205906986421
C      0.761645604670     3.920796468931     2.588225428484
H      1.811707156495     4.220367275569     2.791808326310
H      0.098096441048     4.778062182301     2.843083154402
H      0.515741374144     3.052422715911     3.242161771554
Pd    -1.119573474031     0.368411025537    -0.637600525887
C      2.771665620235    -1.168764400017     0.308646740516
O      3.574366233686    -2.081478060834     0.057819634086
O      1.775842250772    -1.327966868000     1.216743836442
C      2.810717021150     0.177846879768    -0.482490551639
H      3.611081521006     0.050797374885    -1.229928015868
C      3.148693426356     1.364757797969     0.393062833078
H      3.211994653833     2.279280225305    -0.231469053379
H      2.353215465938     1.519952584297     1.151276223456
H      4.119791970019     1.202689051479     0.904566429377
N      1.479107569149     0.398214993391    -1.015176011709
C      1.085424701425     0.414555550572    -2.241854213078
O     -0.230799204259     0.498389005442    -2.496336397312
C      1.997569413175     0.339832898435    -3.398100484370
H      2.697582090874     1.190399562314    -3.339914423162
H      2.531641129441    -0.624796142979    -3.352747842561
H      1.403286422911     0.398342726359    -4.328288333046
N     -1.985870685555     0.263351490895     1.177189140869
C     -3.334307465282     0.134302778657     1.352604538380
C     -3.854522431374     0.013532159005     2.623418774530
C     -3.027727952518     0.030423613205     3.725356869555
C     -1.676806449452     0.154100879292     3.533927632648
C     -1.157068747727     0.267979380512     2.221869495043
H     -3.992448698704     0.127734174224     0.492159568717
H     -4.919017584809    -0.084243161905     2.752374745878
H     -3.438798043093    -0.056890843009     4.727278481637
H     -0.985025237786     0.167552942406     4.350269345460
O      0.109934326358     0.370789785450     2.101556438266
H      1.144147400405    -0.547490143753     1.425685676760

