# STO-3G

title

0 1
C     -2.023187208044    -0.276208770654     0.022711259008
C     -2.262598285065     0.004735615020     1.399600320651
C     -2.269254357824    -1.054190834024     2.340367278431
C     -2.061048298475    -2.374041522793     1.908827904138
C     -1.827512801815    -2.654948446508     0.538669822603
C     -1.806466085538    -1.617487913510    -0.400382828983
H     -2.147476269664     0.493947336682    -0.731452305267
H     -2.512931574994     1.017788006213     1.701568831756
H     -2.466994368193    -0.842539455071     3.388139911778
H     -2.090970725603    -3.191213520357     2.626426259090
H     -1.669703057919    -3.680882564543     0.214695951904
H     -1.625648481919    -1.808306239412    -1.454860382022
C      1.876168992656     2.089746245040     0.289615689302
H      2.648129150150     1.402408480880    -0.039344103611
H      1.513492694810     2.785305186389    -0.457541144851
C      1.491707947566     2.204927633696     1.636600846542
H      0.780460244975     2.971962029373     1.905825726720
C      2.159492107154     1.530519582685     2.762533863708
O      3.178495045139     0.818028283867     2.563276757642
O      1.602429587925     1.662207440230     4.046105060797
C      2.294833866874     0.980886949309     5.102178069898
H      1.767859730582     1.159283164164     6.064334993527
H      2.320241182256    -0.116979509240     4.916631463310
H      3.337002029914     1.361520083724     5.201712581595
Pd     0.014673593416     0.911372013632     0.509428867195
C     -1.041441461484     0.791321293418    -3.688517369253
O     -1.974116705993     0.656547365890    -4.495473525593
O     -0.453190571885    -0.281680834565    -3.098391905618
C     -0.552394230947     2.207023710057    -3.244385575961
H     -1.251954832502     2.918127016747    -3.714561251619
C      0.850310664976     2.512332650346    -3.725510384903
H      1.123554992006     3.547413536893    -3.435617993558
H      1.574718155134     1.812830256662    -3.256249719276
H      0.907275470873     2.416007326838    -4.829691596664
N     -0.518889223950     2.208200578592    -1.796860829863
C     -1.162345373449     2.934850643411    -0.952884376610
O     -1.069316396048     2.661690645135     0.359771459218
C     -2.013824505372     4.074472671602    -1.342510114850
H     -2.422175707418     4.540842322515    -0.427841110241
H     -1.387586799326     4.797475511643    -1.891286522775
H     -2.837896343380     3.696749054791    -1.973007279820
N      1.118809255274    -0.770371718196     0.623888179625
C      1.231896942588    -1.551165374716     1.739029857117
C      1.981963765747    -2.706918215842     1.696194981428
C      2.631882979409    -3.080276708200     0.540339374676
C      2.503172633465    -2.291601977026    -0.572557618546
C      1.716235027986    -1.115719367755    -0.519036426904
H      0.736313851212    -1.257318876927     2.656508664582
H      2.070230415935    -3.312986123518     2.581483091522
H      3.230662369702    -3.986371707735     0.509947660191
H      2.974738629315    -2.536711562323    -1.501826801567
O      1.605527178715    -0.436519354331    -1.596449535517
H      0.340049712844    -0.145097582908    -2.466598353494

