# STO-3G

title

0 1
C     -0.173641391853     0.837863162490    -1.774864044311
C     -0.572365194879     2.068608738044    -2.337088200016
C     -1.165535730364     2.099439288629    -3.616704501467
C     -1.361761411612     0.907305202455    -4.341554030344
C     -0.962541582401    -0.320927555508    -3.779523744429
C     -0.367882997059    -0.359066874864    -2.500046877604
H      1.359599908377     3.054193664480     0.574960168702
H     -0.426719966778     2.995454210393    -1.786129664057
H     -1.470564369978     3.053800761689    -4.042458141918
H     -1.818927171147     0.936084134436    -5.328248918315
H     -1.115475816728    -1.247147226155    -4.330965803904
H     -0.079624379160    -1.316586884450    -2.070622489896
C      2.354963279440     0.128948766755     1.928019957358
H      2.347014896475    -0.957685204455     1.925914584809
H      3.147173714046     0.606881458623     1.364996861731
C      1.484776486313     0.876025624127     2.664664331158
H      1.538383896247     1.954962172201     2.641509494865
C      0.474765121758     0.316116771045     3.576863711913
O     -0.325073778970     1.093805081911     4.164208159160
O      0.416211396875    -1.077803902448     3.785448751814
C     -0.499941011151    -1.519485845662     4.798707965110
H     -0.463697038075    -2.627309124607     4.875473802232
H     -0.225183282552    -1.093965571410     5.790651216735
H     -1.544827476911    -1.224005597459     4.551324181749
Pd     0.686574583835     0.737356317240     0.015041174144
C     -1.959121453482    -0.968928007527     1.544815960507
O     -0.690827192338    -1.353247932510     1.136810429939
O     -2.718417658881    -1.746359705353     2.141393369132
C     -2.302492111495     0.487784374431     1.188829008519
H     -2.931601110823     0.813023545080     2.032934315536
C     -3.156156286330     0.550187609940    -0.063838661374
H     -3.381518261714     1.606074453949    -0.317313387503
H     -2.617023998701     0.097596422119    -0.917466634983
H     -4.110813974814     0.005169944035     0.090842956667
N     -1.108660788255     1.307817745387     0.985183762866
C     -0.965974440425     2.573431923069     1.360025902248
O      0.110056549982     3.263023102737     1.138753755523
C     -2.040474171188     3.278415679943     2.096919966024
H     -2.958355974007     3.267685088560     1.488941758828
H     -2.171247312411     2.778664991169     3.071613823202
H     -1.723035163439     4.323739434246     2.270148212172
N      2.476934057041     1.140999995234    -0.959101059411
C      3.098825014776     0.371909838258    -1.903518745332
C      4.267027751464     0.811261205813    -2.492262675664
C      4.805547397018     2.033184787583    -2.149732084435
C      4.152140711929     2.795053515330    -1.218520046306
C      2.950109384235     2.321780588031    -0.645750294053
H      2.685698266350    -0.593444831429    -2.170460313902
H      4.754438252654     0.196639979037    -3.230311408169
H      5.722619251165     2.387367902135    -2.612454834393
H      4.500605769695     3.762362674092    -0.917440500127
O      2.390967944895     3.140831397424     0.213491796675
H     -0.472585727896    -2.249780956264     1.477550862007

