# STO-3G

title

0 1
C     -0.252151176995     1.622587716737    -0.783474529544
C      0.771894750712     2.419441966966    -1.343005787265
C      0.575197229557     3.800530738193    -1.544352616219
C     -0.639418345703     4.411301288727    -1.181067170299
C     -1.649668526498     3.629326585201    -0.591794180196
C     -1.458433419391     2.246838553283    -0.390470265356
H      1.239190746269    -0.721582673740     1.355711155693
H      1.739354545676     1.995664967014    -1.587606411743
H      1.379508921619     4.397666009273    -1.970803093210
H     -0.788123844460     5.477178626016    -1.338081274718
H     -2.584249832188     4.089045774179    -0.274158560569
H     -2.236714576675     1.668820161562     0.096324155126
C      2.375177554858     2.079003558104     1.878166921170
H      3.043475333293     2.845538649365     1.492242567983
H      2.757915488692     1.062073069136     1.885712209268
C      1.113483118916     2.331315774746     2.293794945856
H      0.492206991212     1.510072400663     2.620128050689
C      0.479668985410     3.657709620767     2.295818153465
O     -0.690540319471     3.774098592067     2.754673184259
O      1.222101560035     4.790709732700     1.904314642208
C      0.535374990126     6.046509044209     1.986701001397
H      1.210874642108     6.857595949006     1.641359138292
H     -0.369531303166     6.043614811841     1.338622656318
H      0.236752191998     6.263155887099     3.037213462014
Pd    -0.133609425560    -0.367146090270    -0.684036668681
C     -2.030643071309    -2.867214610357    -0.437438014053
O     -0.661273280468    -2.615522708875    -0.696977513899
O     -2.516818675462    -3.985947033104    -0.590384676574
C     -2.728866567108    -1.576479388502     0.079278681389
H     -3.492144114999    -1.926842270941     0.792612915486
C     -3.432433502616    -0.836731536632    -1.034916367253
H     -3.988670939301     0.024060729169    -0.609121438771
H     -2.692842077405    -0.450039774434    -1.765173905438
H     -4.151485550492    -1.506388787082    -1.551832949709
N     -1.705488963436    -0.691842870639     0.625535661294
C     -1.221699639293    -0.801232158828     1.871924741462
O     -0.000801576104    -0.551205929707     2.183017113498
C     -2.137467286940    -1.160078006634     2.978623628927
H     -3.003773079207    -0.477761994660     2.940732547972
H     -2.430594029841    -2.216046266326     2.873840314506
H     -1.600432995725    -1.023355055158     3.936297100937
N      1.866306553798    -0.545355480239    -1.250845295036
C      2.391767237259    -0.478120381106    -2.512197492560
C      3.727145002325    -0.754332050055    -2.720422157577
C      4.543193435873    -1.096122222711    -1.663567415541
C      3.993223384047    -1.161510179109    -0.411437670796
C      2.621328113918    -0.873547899023    -0.232590887049
H      1.756601620036    -0.203301866306    -3.346252715499
H      4.134179073483    -0.693711420070    -3.716251916180
H      5.597101347144    -1.310207821444    -1.819582303728
H      4.567238079360    -1.421490102190     0.455424025944
O      2.213380409863    -0.973856096747     1.014541670760
H     -0.141361348021    -3.420447634063    -0.903262567348

