# STO-3G

title

0 1
C     -0.232587733515     1.122636559348    -1.832560370941
C     -0.530460966656     2.495150536085    -1.969818679589
C     -0.769638010447     3.041461030962    -3.248218980551
C     -0.716038105564     2.224838838818    -4.394808733050
C     -0.421174357115     0.854654401280    -4.257424019501
C     -0.176440807868     0.302545965326    -2.981816636556
H      0.714669157589     2.251340429488     1.374519039156
H     -0.578207214392     3.138114760168    -1.093402252888
H     -0.996399737326     4.101969518389    -3.343242474758
H     -0.902792697437     2.649822241491    -5.378626938003
H     -0.385278736931     0.214406501075    -5.137126590394
H      0.035655606124    -0.761400743326    -2.895473455922
C      1.053096502617    -1.284632360960     1.640098788538
H      2.127734654852    -1.275178287972     1.488750889801
H      0.482800598999    -2.016686012545     1.076938169064
C      0.433869726551    -0.493893684669     2.566067203798
H     -0.634085260506    -0.570164345329     2.691534147581
C      1.124064491596     0.419568746429     3.492999239053
O      0.467370226323     0.876496454145     4.468490674055
O      2.531373321959     0.440575219485     3.504829775270
C      3.114949454512     1.503704425883     4.268331150782
H      4.220398758624     1.455884099721     4.178980656639
H      2.778392154929     2.492327590097     3.877477825515
H      2.843983990207     1.416862000600     5.344547683391
Pd     0.146749780441     0.324455473410    -0.042989334809
C     -2.744623555939    -1.587699318146     0.246598575238
O     -2.010255841574    -1.952220000397     1.372100215030
O     -3.131034418029    -2.429890844377    -0.573780194023
C     -3.015056084380    -0.074210448641     0.247805332034
H     -3.842637404086     0.051040105544     0.969817325419
C     -3.497182601477     0.418560886050    -1.099534941051
H     -3.621361017212     1.520918128471    -1.076682414356
H     -2.761477832355     0.165416622333    -1.886893666796
H     -4.469990912129    -0.049917936627    -1.356797433768
N     -1.809279882642     0.665041129608     0.618740164142
C     -1.746304351995     1.701219033842     1.447162739374
O     -0.642302703371     2.315038577250     1.725613149751
C     -2.959388291444     2.203394570304     2.131852806049
H     -3.700651163749     2.495449284950     1.370636263703
H     -3.328466052841     1.414176889592     2.806369506558
H     -2.680786191251     3.088769500543     2.734763594283
N      2.147060124502     0.769969412464    -0.347482014046
C      2.995875502869     0.210756186312    -1.261883795963
C      4.298834749912     0.654536101888    -1.358338371187
C      4.751062024106     1.673589131080    -0.547533225080
C      3.876551209967     2.233866093464     0.344315731044
C      2.546670046806     1.760192535806     0.411511934827
H      2.648558587085    -0.595466336907    -1.896787300676
H      4.962963497376     0.203706112211    -2.076332278318
H      5.774766990329     2.030214051844    -0.619841526242
H      4.151724497312     3.039747043535     0.992972792343
O      1.786038303621     2.389179012983     1.276389099360
H     -1.866470788879    -2.923604486621     1.391420111838

