# STO-3G

title

0 1
C      0.076583654286     1.298481371163    -1.463447260174
C     -0.506674442255     0.945458122076    -2.698367886320
C     -0.819273865675     1.954686817293    -3.634954901211
C     -0.550927842961     3.306431371522    -3.348582318828
C      0.034504273932     3.652843747788    -2.115496502868
C      0.353868720388     2.652958253384    -1.173828033757
H      1.888520227453    -1.455753251015     1.525394699546
H     -0.740026421152    -0.088611749206    -2.936281797425
H     -1.280267271481     1.677092600227    -4.580672574361
H     -0.798551599664     4.078583458848    -4.073349997378
H      0.242652934641     4.695092341528    -1.880821234905
H      0.802621087424     2.937905884743    -0.225217572548
C      2.048436747140     1.601363373966     2.217171803925
H      2.301354303344     2.473385925963     1.620031742382
H      2.772084520593     0.790948510456     2.212787279859
C      0.900355752004     1.484184043112     2.921976055326
H      0.698753132670     0.567352030700     3.457913426481
C     -0.162620241252     2.496925316913     2.973863503310
O     -1.219567009585     2.236210823249     3.609636432740
O     -0.026894293430     3.690591693332     2.238972973931
C     -1.116084286169     4.618439513892     2.338484185056
H     -0.887808989046     5.520299090370     1.730694943752
H     -2.057475276695     4.169342682299     1.950412631208
H     -1.266585981855     4.939969379015     3.394125437416
Pd     0.519824748873    -0.044115205471    -0.060832460184
C     -3.099862593816    -0.885939407096    -0.790933528634
O     -2.067082514612    -1.590451734848    -1.368887825618
O     -4.234736956634    -0.879711855749    -1.274376294744
C     -2.728479188184    -0.152163286929     0.541775224235
H     -3.437604216607    -0.546814227066     1.286279709653
C     -2.951146428947     1.337710755874     0.445973067196
H     -2.711431851652     1.808681348115     1.420077220565
H     -2.305972490397     1.779397340533    -0.336849214663
H     -4.012288558276     1.551526699202     0.198839940573
N     -1.332919403203    -0.390477070681     0.886020802699
C     -0.863365824427    -1.155325314387     1.853835439368
O      0.408339142267    -1.426477115689     1.876634386391
C     -1.716721928960    -1.674005172607     2.938135370936
H     -2.187485467066    -0.813014681016     3.445967764572
H     -2.463654279345    -2.360877510246     2.508088469692
H     -1.077726235484    -2.222803131328     3.655470241765
N      2.516181228554    -0.212057270079    -0.660522632792
C      3.050076253127     0.329503450285    -1.803977782981
C      4.383864467733     0.144204306919    -2.106315340030
C      5.196388338552    -0.586237454992    -1.269794105679
C      4.644801147210    -1.121511318453    -0.139085328180
C      3.274969782307    -0.917569716708     0.135682655568
H      2.436099764761     0.906282913051    -2.482087315295
H      4.788724374362     0.576392273103    -3.006639910945
H      6.247412699986    -0.735700678400    -1.502017566466
H      5.214677783259    -1.705472773490     0.555781709413
O      2.874121935860    -1.484988334024     1.259360280177
H     -1.211248110268    -1.433541155941    -0.883497572439

