# STO-3G

title

0 1
C     -0.150580462629     0.956466119923    -1.686609039686
C     -0.886614373865     2.062250933404    -2.161166957605
C     -1.462403850317     2.015202606369    -3.448096816597
C     -1.311957686456     0.872911273368    -4.258333542934
C     -0.574278913762    -0.226482889005    -3.779912683198
C      0.013437012675    -0.186368085586    -2.497315570921
H      2.154786169515    -0.955142412019     0.302402743726
H     -1.011216069477     2.943498212749    -1.537812115400
H     -2.030785608922     2.869529041143    -3.810389423219
H     -1.762462395636     0.839365656169    -5.247623727314
H     -0.450532746671    -1.114183826298    -4.397172863503
H      0.584466596316    -1.046364714865    -2.152120307169
C      2.334355901532     0.866889528587     2.179984390622
H      2.334836998101    -0.176187161812     2.490724387740
H      3.150981963874     1.179902698975     1.539132716514
C      1.445475846384     1.775993755037     2.675653161036
H      1.476919517154     2.812012186035     2.371542373862
C      0.420109357956     1.448091472477     3.681701005884
O     -0.360877639391     2.352850901453     4.081035658870
O      0.270439804724     0.117941808003     4.109572818769
C     -0.748898601048    -0.123940129285     5.089294123487
H     -0.780419856594    -1.211153405761     5.322124685632
H     -0.533598824905     0.431073258571     6.029907476491
H     -1.750939897933     0.169111791830     4.703932040317
Pd     0.714689351712     1.110490326161     0.120029198862
C     -1.524633697238    -1.125713999880     1.826354854347
O     -0.277551527709    -1.468607343453     1.339173318186
O     -2.123357569105    -1.858124954736     2.620611178029
C     -2.144049661437     0.191493031063     1.273321928513
H     -2.866894441796     0.476759495041     2.049537744004
C     -2.915556501254    -0.082396281551    -0.005105873146
H     -3.338540423918     0.859963693248    -0.408706293718
H     -2.250645046194    -0.523033633282    -0.773666050735
H     -3.747489780949    -0.790623811157     0.194063518290
N     -1.158495466056     1.252952501070     1.013180519349
C     -1.360004246211     2.576603724515     1.168491011387
O     -0.466683394609     3.424483350072     0.819178466521
C     -2.615785439272     3.084332771984     1.768011925268
H     -3.469503734038     2.754545206202     1.155261627272
H     -2.677364327410     2.714407709707     2.805775382808
H     -2.573750457454     4.189184738969     1.785085336018
N      2.525837374768     1.089417815524    -0.915698740477
C      2.846813615687     2.172577133155    -1.691239488666
C      3.998519754158     2.153787702480    -2.453844110574
C      4.824155968682     1.048085957483    -2.447358667209
C      4.469559660391    -0.022645633357    -1.668053196382
C      3.283481602633     0.043307782554    -0.912413920423
H      2.201819698290     3.043999138186    -1.696889227281
H      4.247163327424     3.009252448484    -3.060280041271
H      5.730394528606     1.025249714547    -3.046666558100
H      5.055268110085    -0.918478588089    -1.617000631573
O      3.008585962144    -1.049484819509    -0.195437014616
H      0.081953819575    -0.744141626286     0.741894303908

