# STO-3G

title

0 1
C     -0.229344584204     1.043819762433    -1.816708702325
C     -0.488392159139     2.417989443366    -1.993543835750
C     -0.718805778772     2.925864808924    -3.289493698259
C     -0.689487307929     2.068413223514    -4.406604985425
C     -0.428248000159     0.696567844319    -4.224911487725
C     -0.194018883777     0.179923871393    -2.932440111947
H      0.677062943406     2.180000232638     1.483862574272
H     -0.514579363675     3.090901216043    -1.138917654063
H     -0.919529967257     3.987538254833    -3.420338620931
H     -0.869651663616     2.464051868494    -5.403545403425
H     -0.411643193485     0.026527578968    -5.082257883186
H     -0.010391687802    -0.885287300581    -2.808096269945
C      1.092300333142    -1.342043007981     1.690319318225
H      2.152493363441    -1.287523125359     1.466774887205
H      0.530532607542    -2.114668349517     1.172893080883
C      0.525351351175    -0.577257220087     2.670819292845
H     -0.523720066308    -0.680346274668     2.914172926740
C      1.261921705198     0.345041480145     3.554230837317
O      0.665679511845     0.785530211341     4.574259254882
O      2.664748458404     0.402560412326     3.460033134184
C      3.284429914637     1.444935865275     4.224038222500
H      4.380560250572     1.426863835589     4.048386200251
H      2.899015256755     2.441729586142     3.906336290736
H      3.100023034070     1.304219157434     5.312894569432
Pd     0.132710675642     0.296209342835    -0.006146588056
C     -2.967999234502    -1.622151912765     0.049311824498
O     -1.892908222700    -2.097639431891     0.779838254654
O     -3.731294614098    -2.374506496079    -0.557764253248
C     -3.125991136420    -0.076353842572     0.153346078891
H     -3.978976726863     0.054416497268     0.840999885458
C     -3.502131516452     0.548842801686    -1.171212039853
H     -3.498690783883     1.655202083862    -1.087665542524
H     -2.785399496761     0.250406671780    -1.959207405989
H     -4.515467944827     0.213893023186    -1.477654949257
N     -1.884063966149     0.542364127526     0.653464982289
C     -1.824099862510     1.562752657084     1.517091577140
O     -0.718040329689     2.120806369107     1.866449034339
C     -3.050993796993     2.088913960238     2.157811003211
H     -3.737003419116     2.449859878953     1.373902710428
H     -3.496286211379     1.293926034349     2.777691193961
H     -2.769857502885     2.936808739491     2.812292178373
N      2.112324334980     0.818031961372    -0.288166367435
C      2.972034125122     0.302888307043    -1.219223988637
C      4.258925208253     0.790528691779    -1.316342928140
C      4.684720704038     1.807780326815    -0.489222392737
C      3.799347677139     2.321880936258     0.419801292831
C      2.487449451982     1.802656276332     0.487769593851
H      2.646071001273    -0.501556619622    -1.867684993154
H      4.931898724893     0.374772632438    -2.047510760669
H      5.695987292484     2.198427923506    -0.561905363113
H      4.054750244716     3.122793756227     1.082715428074
O      1.714325047412     2.390224173320     1.373590862258
H     -1.405763069963    -1.307890066760     1.126948516599

