# STO-3G

title

0 1
C      0.466653340560     2.450149916132    -1.708286928138
C     -0.393371536461     3.471472276062    -1.211951595410
C     -1.636143173075     3.712359544782    -1.810688679432
C     -2.045189706322     2.945871964103    -2.929268302833
C     -1.200804556083     1.955840061354    -3.457428823222
C      0.056351615386     1.714426935371    -2.858746445138
H      0.389288456021     2.286874804392     1.475287399499
H     -0.072998057160     4.080546791863    -0.372131131710
H     -2.281045829739     4.499574528400    -1.428121048221
H     -3.008739199033     3.142781835902    -3.394203709873
H     -1.500441634481     1.391129800661    -4.336224299329
H      0.746444773661     1.005642235274    -3.304329880713
C      2.468598796520     1.651925890242     1.902737320705
H      2.786768763852     2.567034312504     2.400382494337
H      2.838301666068     1.507552980608     0.889288061494
C      1.658198201981     0.740568207393     2.503335713428
H      1.355862920814    -0.151554296936     1.969315963274
C      1.098429683657     0.887506622399     3.857880875152
O      0.187358510756     0.098786162609     4.229479588374
O      1.549033623319     1.926559566910     4.695171505493
C      0.916192389238     2.016418205860     5.978773281159
H      1.354068145004     2.865972628147     6.545258496944
H     -0.176523044696     2.198488649321     5.867046505244
H      1.079542104801     1.084391609586     6.565953830051
Pd     0.298846858780     0.363439089313    -0.529625087113
C     -1.379760058418    -1.669738009199     0.552681028607
O     -0.065734605950    -1.457719438726     0.328054866358
O     -1.878000037665    -2.776924001725     0.822220492315
C     -2.278453120449    -0.379082861090     0.438170542156
H     -3.061396613922    -0.466694041061     1.202193563548
C     -2.927145081118    -0.264042441940    -0.922072634596
H     -3.533793819084     0.663950743116    -0.967271421490
H     -2.148884036226    -0.216855172223    -1.709370271633
H     -3.584184809003    -1.139681499141    -1.106032487404
N     -1.388973194332     0.786376906234     0.595213574704
C     -1.501668606445     1.737077500333     1.459997221917
O     -0.521156654886     2.618890058883     1.716787797031
C     -2.731078885681     1.944521699999     2.242345639855
H     -3.580696410379     2.023368213607     1.544023663990
H     -2.841540716821     1.095337939329     2.938160132787
H     -2.635388941327     2.879331721475     2.825241976684
N      1.924916123849    -0.400077806728    -1.452141962898
C      1.873955056629    -1.703870670683    -1.866785863906
C      2.987702499964    -2.289446929600    -2.427447198648
C      4.165904294363    -1.590383692573    -2.551929515111
C      4.210024150400    -0.293752532339    -2.114044991216
C      3.064556875355     0.305249133377    -1.534623955852
H      0.949696962109    -2.264730477045    -1.799713770072
H      2.933268963568    -3.313942470664    -2.757656295340
H      5.045593025159    -2.059928980666    -2.984120512612
H      5.106733871051     0.290174843642    -2.167079739456
O      3.198676558082     1.502023187661    -1.115526688986
H      1.508059773971     2.366293676261    -1.360328597366

