# STO-3G

title

0 1
C      1.685188550441     3.974720885501     0.153285135309
C      1.612496734290     5.338572447835     0.511462949745
C      2.744286178715     6.002311665185     1.018984905098
C      3.962573329761     5.311353029830     1.168982077817
C      4.041979648964     3.953504904684     0.806307050772
C      2.909732264453     3.290911345881     0.297801967044
H     -2.942414997989    -1.096306323868     1.751353143117
H      0.675461115672     5.881025770030     0.398721614138
H      2.676479424427     7.052116818405     1.294105804200
H      4.837331615303     5.824716663293     1.560092649903
H      4.977894574609     3.411812388345     0.916398916784
H      2.975879337931     2.238021807406     0.023678679871
C      0.437112364416     3.275323183825    -0.353307743422
H     -0.187247933192     3.928428784076    -0.968322646493
H      0.851649813846     2.521687798396    -1.190878011304
C     -0.422098973897     2.480836033280     0.606447116988
H     -1.490534146225     2.649817931701     0.536563461015
C      0.035008560392     2.125187702384     1.961858579944
O     -0.790402420929     2.172604656061     2.910097805528
O      1.232928167230     1.400164285563     2.068905516706
C      1.581292107167     0.957430286258     3.388145782271
H      2.543807982918     0.403696622776     3.350708140947
H      1.702563043083     1.822751784941     4.078048499457
H      0.809151763494     0.265553993352     3.793695796168
Pd     0.103048537358     0.962352125950    -0.650569718202
C     -0.791891105603    -1.723251509343     0.245249792644
O      0.010412724703    -2.266209346449    -0.590004640806
O     -1.058606672734    -0.443282388454     0.305018685589
C     -1.532715949595    -2.580124374671     1.293439692522
H     -0.775425296171    -3.122246204604     1.869737609517
C     -2.482849525069    -3.573906502372     0.662917806004
H     -2.952808919715    -4.187391534620     1.459224190099
H     -3.279736560029    -3.029026665035     0.117515269035
H     -1.936445789857    -4.240311403445    -0.036203225507
N     -2.291840298068    -1.731072153334     2.202149086205
C     -1.766882208153    -1.392411380702     3.417354393826
O     -0.693703612618    -1.848368536236     3.877831762336
C     -2.562265314431    -0.462650887126     4.249419901156
H     -2.784465961428    -0.976041501786     5.198918161210
H     -1.943520071921     0.431156431619     4.431607304672
H     -3.499179724964    -0.181809518112     3.738327598273
N     -0.511603079606    -0.982557978405    -3.872472186887
C     -0.956407963231    -0.673661456146    -5.129676190593
C     -0.439384775576     0.426645455245    -5.793145470291
C      0.535518142092     1.205657678670    -5.204238554314
C      0.959441438293     0.871871349014    -3.941698582414
C      0.391602835274    -0.264785337861    -3.321167254426
H     -1.717675153076    -1.286747139776    -5.598026060554
H     -0.792872638680     0.660138603211    -6.784376498541
H      0.961907392343     2.055711306080    -5.730774533148
H      1.750276893940     1.401749831927    -3.451664675208
O      0.879023954330    -0.511018091063    -2.075921884481
H      0.538385328781    -1.392254459908    -1.566738314079

