# STO-3G

title

0 1
C      1.688488432497     3.263485139576     1.351028910571
C      2.963279091982     2.673381563761     1.462403497134
C      4.100554165777     3.486704805771     1.640982088981
C      3.965037341622     4.888314826698     1.710608218539
C      2.689226463764     5.478245006369     1.604196315069
C      1.552723035574     4.664046030807     1.426683713157
H      0.819314693809     2.628257362237     1.215349144848
H      3.057184694147     1.592520186274     1.396123640284
H      5.083428992231     3.029380515455     1.726531414108
H      4.843380917470     5.514202815427     1.852601712753
H      2.580337621075     6.558950376802     1.666798900166
H      0.564013803531     5.116683142704     1.357843565382
C     -0.159916459739     1.221075213396    -2.678210634093
H      0.070958636382     0.170089076423    -2.475928507213
H     -1.160403203210     1.412385579334    -2.283170167596
C      0.882686479461     2.121353760656    -1.953013675928
H      0.947998200202     1.806694975713    -0.919074744589
C      2.271654526865     2.074154383277    -2.489872883588
O      2.433646973461     1.813881174738    -3.717365079408
O      3.369205466638     2.197761060771    -1.622186044673
C      4.667284620929     2.108154613198    -2.221563499487
H      5.439229307453     2.230224975513    -1.431500134762
H      4.813378646575     1.113908011943    -2.700182624358
H      4.810378660579     2.913931544197    -2.975746968347
Pd    -1.292337457009     0.804254906350     0.327231925327
C      0.899429796947    -0.920033103001     1.015948379878
O      0.666920938202     0.292781280996     0.442090711715
O      2.045694203669    -1.316339078418     1.289161458435
C     -0.376397733374    -1.800784968398     1.303178420260
H     -0.338902520802    -2.082779437100     2.365858479481
C     -0.374534709889    -3.054952564939     0.453920366151
H     -1.223008040862    -3.707959839246     0.736223048146
H     -0.467266843563    -2.777387359919    -0.615836534564
H      0.570853932237    -3.617213294575     0.606472204345
N     -1.548506958437    -1.011095548143     0.975353030681
C     -2.852713301276    -1.000956543861     1.166786133729
O     -3.485364987560     0.068234486615     0.770670713924
C     -3.561440420974    -2.118734550865     1.806651674442
H     -3.463360087921    -3.004747621322     1.160032371119
H     -3.105969558975    -2.289170272837     2.795997790471
H     -4.625790827495    -1.841075718028     1.914961919178
N      0.305369503339     3.545124775680    -1.873711330722
C      0.756913434692     4.632825457471    -2.601876561917
C      0.132385590586     5.857760046660    -2.504685401586
C     -0.941103069858     6.034424417638    -1.669231421814
C     -1.386128604240     4.968899085229    -0.941257862887
C     -0.742467922715     3.710798613132    -1.037251091884
H      1.600352912503     4.530562599911    -3.274464998821
H      0.504635939121     6.686514886662    -3.082681205586
H     -1.426367197211     7.003052747280    -1.587101646398
H     -2.213569876965     5.052659656855    -0.266770706713
O     -1.236880078938     2.807082310341    -0.299095718171
H     -0.179200318880     1.371834108975    -3.765118986083

