# STO-3G

title

0 1
C      1.735040182138     3.147522166875     1.364525299729
C      2.986734404812     2.521815389788     1.532334720852
C      4.131619190826     3.301452006870     1.792885110454
C      4.026682713272     4.704446589874     1.886007542695
C      2.774361988273     5.329665341159     1.719782564108
C      1.629626525255     4.549296960566     1.461240209131
H      0.857728986561     2.540656537014     1.168553048344
H      3.058626700040     1.440911318957     1.445029535795
H      5.096826721527     2.817731188869     1.922717233004
H      4.910751799141     5.304466755257     2.090272563191
H      2.689712765060     6.411529744168     1.797386362361
H      0.657909398073     5.027995042394     1.344670323935
C     -0.106236130876     1.193343169293    -2.730358705843
H     -1.083934074084     1.266103306669    -2.246431173607
H     -0.222607533418     1.443626336474    -3.789593311395
C      0.903348227921     2.131575320329    -2.010717241886
H      0.946903429729     1.851050903610    -0.966685175600
C      2.315424511168     2.102521283060    -2.487991189482
O      2.570982840644     1.534518115142    -3.588224127776
O      3.348156862524     2.534616727253    -1.639613265251
C      4.684706224810     2.378714521013    -2.130974079986
H      5.396212634292     2.764489972733    -1.369322374481
H      4.916071689285     1.304725006428    -2.309951695813
H      4.830509418131     2.956899443855    -3.070615964174
Pd    -1.265850593607     0.851181544462     0.319932941700
C      0.875923752858    -0.983424754270     0.870518619259
O      0.668297318136     0.235719065955     0.301463531776
O      2.016443557030    -1.435218302224     1.073456566231
C     -0.420810751587    -1.793606598366     1.254432587290
H     -0.327259726273    -2.059647378140     2.317896151908
C     -0.539250733223    -3.060438911096     0.432683949305
H     -1.390810528191    -3.669429478230     0.793886113113
H     -0.704559243911    -2.799735102612    -0.632039184972
H      0.388955043188    -3.663222939533     0.524635018395
N     -1.570567997767    -0.948954273466     0.990110300027
C     -2.856764552681    -0.870048706432     1.268146973504
O     -3.457693776779     0.230446588268     0.910232795881
C     -3.579054378231    -1.948846782444     1.957706147907
H     -3.571160310699    -2.839184217541     1.309584948305
H     -3.069779228603    -2.142429249225     2.916082431659
H     -4.618062521709    -1.615491893089     2.134549239932
N      0.293763805605     3.539692014941    -1.984576620262
C      0.682321532441     4.589779655363    -2.797973700592
C      0.053550282815     5.814131885931    -2.720069352665
C     -0.966290985961     6.023839567822    -1.826354305679
C     -1.357336037616     4.990934479816    -1.023442301966
C     -0.713738807398     3.731704100510    -1.104836071587
H      1.484160193900     4.457186719451    -3.515033622481
H      0.378074564122     6.615124410100    -3.362093805450
H     -1.455706171872     6.991608422652    -1.761264263826
H     -2.148802659464     5.098530034802    -0.310642870116
O     -1.166449864123     2.852414910418    -0.313129611875
H      0.217616187760     0.149077659038    -2.653997495168

