# STO-3G

title

0 1
C      1.561291079782     2.195803346593     1.638940656602
C      2.618909886861     1.370809510305     2.074075646692
C      3.387891027306     1.749855263441     3.191752804183
C      3.101992084407     2.949319962813     3.875603579284
C      2.038896526069     3.768325185608     3.446252725318
C      1.267321837703     3.387897495768     2.329590021367
H      0.970701339555     1.895731338830     0.776440665692
H      2.829913143470     0.441666866956     1.550870809235
H      4.199863480139     1.110244462865     3.529703140983
H      3.696571686244     3.238316609061     4.739476117821
H      1.808558014175     4.687650129226     3.980071812854
H      0.432356973907     4.008885749550     2.010330607906
C      2.876731676349     1.805491760883    -1.612422715199
H      3.265015014116     2.171965119514    -0.660590350028
H      2.027415823001     1.154708929755    -1.412042022315
C      2.516281568165     3.004321579649    -2.537276242386
H      3.382667862233     3.664389751190    -2.561165972345
C      2.205188227068     2.699954065657    -3.967330067720
O      2.487667139608     1.542625837632    -4.391443837431
O      2.134698005064     3.777880887106    -4.871022048307
C      1.876298490880     3.427144367754    -6.237195683232
H      1.807338745180     4.353310635697    -6.846777164108
H      2.699259976031     2.800253928684    -6.648808828267
H      0.910932777036     2.878973686782    -6.326388468478
Pd    -0.899628280539     0.704831727737    -0.850243502728
C      0.675412625836    -1.313200540032     0.441432203213
O      0.781161956274    -0.396528903033    -0.558735395441
O      1.655801964346    -1.947596459937     0.871268312852
C     -0.769626026764    -1.527247402141     1.035918954192
H     -0.678852404989    -1.500245828627     2.131081682977
C     -1.344498651494    -2.861655183301     0.613097444616
H     -2.338878277901    -3.009790455711     1.079352927873
H     -1.457913625781    -2.881091016715    -0.491042599085
H     -0.670774316012    -3.685636662815     0.928720566620
N     -1.622695997161    -0.475949038236     0.518528637768
C     -2.713908786171     0.185511881209     0.829610039666
O     -2.994646942586     1.227289919657     0.087809778507
C     -3.568289069972    -0.206009937297     1.959186173246
H     -3.946794020150    -1.222613312752     1.764372013150
H     -2.956125076250    -0.176282237600     2.875434575323
H     -4.406837322933     0.510344385174     2.029632032186
N      1.399810889760     3.826746340454    -1.873748161861
C      1.593764478553     5.095958156155    -1.356964572296
C      0.591179631788     5.726701427818    -0.647603903170
C     -0.624088319894     5.115288828174    -0.451352261373
C     -0.819502831221     3.862346375531    -0.961285984063
C      0.210154396323     3.229991372803    -1.698740814229
H      2.541836192435     5.602544006710    -1.497580603589
H      0.765481025558     6.713755933022    -0.254461960254
H     -1.415474619410     5.618595370092     0.097283199318
H     -1.759954706099     3.356469594770    -0.861098518329
O     -0.029534368464     2.078964659104    -2.191696450905
H      3.632923528923     1.164659384862    -2.088183800550

