# STO-3G

title

0 1
C     -2.620466762339    -1.737947852986    -3.256894905802
C     -3.880113311338    -2.148616153761    -2.744194616389
C     -4.888202649440    -1.209083882292    -2.510376171035
C     -4.661987480421     0.166989985819    -2.777134511327
C     -3.434134098067     0.589137562968    -3.295455538936
C     -2.403870095520    -0.361326962640    -3.546759464073
H     -1.842387962964    -2.450414286655    -3.513403231061
H     -4.056874985179    -3.202218412027    -2.543128303123
H     -5.852292510673    -1.529967150168    -2.122627966449
H     -5.451271765575     0.890242334303    -2.586987108320
H     -3.264498496546     1.637213232485    -3.527720664509
H     -1.505950397479    -0.062434398088    -4.078365871875
C     -1.169575987574    -3.756891285497    -0.740615681724
H     -0.827303424486    -4.758308867904    -1.021012028406
H     -2.259576783736    -3.754971912668    -0.706097636052
C     -0.559584126841    -3.401281200943     0.651601514651
H     -0.491382920144    -4.360407968134     1.167926987857
C      0.816685302094    -2.822657608688     0.674570150031
O      1.401352370709    -2.651765289661    -0.435273864134
O      1.574711401804    -2.980099751771     1.850237798601
C      2.852578017299    -2.330078958436     1.850781989185
H      3.350271705028    -2.499195250512     2.829179379529
H      3.509708614588    -2.738113043819     1.050468332002
H      2.733741849774    -1.231249901473     1.713130516356
Pd    -1.070384395784    -0.732327225537    -1.522441188426
C      1.226371640634     0.530596096485    -0.373290770889
O      0.116005270075    -0.148831776145     0.015554396729
O      2.059326807818     0.982028584720     0.437226528484
C      1.354579597030     0.705864163494    -1.922625372741
H      2.426322357031     0.686219492495    -2.159839403500
C      0.793176115489     2.035581361243    -2.374227629604
H      0.911245870272     2.134905442727    -3.472909856158
H     -0.286741501854     2.088608594640    -2.124136183457
H      1.328726084484     2.868448897818    -1.872143207472
N      0.570368844906    -0.343643187946    -2.587454981346
C      1.014523478476    -1.384109483753    -3.323817497528
O      0.291062382065    -2.376031821900    -3.659751422898
C      2.404102669145    -1.337901224911    -3.836216585106
H      2.560734768926    -2.204928696698    -4.502993052307
H      2.534746178551    -0.400818297520    -4.402399013759
H      3.095935693672    -1.407416445272    -2.978578999664
N     -1.529604246666    -2.595974057644     1.557906100542
C     -1.511068928745    -2.829302036284     2.930445905357
C     -2.458271716907    -2.273715407263     3.762054432351
C     -3.434701096463    -1.454443042828     3.261641338112
C     -3.433127358174    -1.177107204183     1.926528204352
C     -2.436771654813    -1.714628634016     1.071468437442
H     -0.763769637287    -3.487486857717     3.360797198280
H     -2.424801524398    -2.488005302835     4.816557269198
H     -4.182182319591    -1.017455665525     3.917836246930
H     -4.146369358998    -0.506997441993     1.492972916870
O     -2.515897544939    -1.301782844714    -0.122222882687
H     -0.845433779533    -3.092551309152    -1.549823591467

