# STO-3G

title

0 1
C      0.526117689440    -0.680734141829     1.030998827422
C      0.070105593088    -0.696238356076     2.445335322625
C     -0.518973842892    -1.778263543167     3.037501335573
C     -0.703115468221    -3.015267554547     2.279285130836
C     -0.138486024900    -3.163691219808     1.053638503691
C      0.764811983764    -2.094983212605     0.472784517225
H      1.403968659741    -0.046308475167     0.884074019030
H      0.198508344979     0.218098174910     3.020991132674
H     -0.872082758260    -1.722960024036     4.063881526319
H     -1.286031154753    -3.823701708592     2.715673698017
H     -0.231390396133    -4.086396931130     0.484213164708
H      1.816306232002    -2.379069991150     0.621721193814
C     -1.470072653510     1.964491332876     1.312035257273
H     -1.321015412611     1.622699365149     2.328463615993
H     -2.494958673440     2.051428145887     0.966317014700
C     -0.441423060282     2.521497800492     0.544985698402
H     -0.686142266572     3.008691667947    -0.386581796833
C      0.932774583881     2.779078705788     1.009011614665
O      1.305606882508     2.349184959746     2.132680269966
O      1.821897139211     3.436898315342     0.144850979961
C      3.185991928706     3.510982174888     0.579855897830
H      3.786183804598     4.043970175377    -0.188867428508
H      3.267380168243     4.072427469123     1.538170148983
H      3.615517696677     2.491354996889     0.706605024661
Pd    -0.835119601341     0.373750206416    -0.154120835359
C     -3.049853896815     0.352408425572    -2.140488298133
O     -2.240246710876     1.234605042827    -1.533303107983
O     -3.968582869105     0.637062765266    -2.932370708761
C     -2.762382710053    -1.153501186867    -1.788091292327
H     -2.955813208822    -1.715680304657    -2.712817969757
C     -3.696883477550    -1.663196647482    -0.714542179206
H     -3.508614538313    -2.743392150307    -0.542521989313
H     -3.508660781360    -1.119989448122     0.233988058304
H     -4.753838410430    -1.522063061486    -1.023265796444
N     -1.401218936765    -1.316595305457    -1.256603545987
C     -0.467057761307    -2.086777376213    -1.680234074413
O      0.718314164538    -2.214752539646    -1.045149429878
C     -0.585715432026    -2.862899250664    -2.927727373519
H     -1.419868773063    -3.574257532276    -2.816448181981
H     -0.750870937023    -2.153739670808    -3.755710277445
H      0.356519979217    -3.416511293529    -3.095111331925
N      0.979904416134     0.985426520114    -1.981487829586
C      2.247711019650     0.464940352526    -1.995786134189
C      3.248143206262     1.094473935248    -2.713868595671
C      2.979690240703     2.239770223844    -3.432323448597
C      1.701581639479     2.731523102675    -3.416652041347
C      0.715877733202     2.054907624359    -2.665296685210
H      2.475242158942    -0.428804662964    -1.429714541253
H      4.241251895574     0.677342753296    -2.712031339191
H      3.761067929594     2.737577371349    -3.999893025463
H      1.419745989533     3.615544455331    -3.951874904810
O     -0.487665476261     2.624908468716    -2.723620915716
H     -1.257337243574     2.100641783343    -2.290155157667

