# STO-3G

title

0 1
C      3.676087632428    -2.290053404079    -1.291890032508
C      4.530463729052    -1.222458356758    -0.948230599157
C      5.872864347888    -1.222585519231    -1.375995450737
C      6.366346393321    -2.293450247894    -2.148656682706
C      5.516393718817    -3.364280669976    -2.490977955930
C      4.174039900752    -3.361034816680    -2.061407537628
H      2.196270441365     2.760937502653    -1.614326141302
H      4.149944261918    -0.398130445929    -0.348948273365
H      6.528571720832    -0.396760989387    -1.109263279854
H      7.402931007624    -2.294548160395    -2.478141654884
H      5.895965961252    -4.193751313057    -3.083358108735
H      3.513018170928    -4.187020026070    -2.317865672396
C      1.414954323791    -0.676162686629    -3.343243423970
H      2.256973561010    -1.334901892927    -3.155129285746
H      1.609894450485     0.201947612726    -3.948475695208
C      0.111090311806    -1.000231552628    -2.985681017430
H     -0.681851974937    -0.329039322914    -3.281065517327
C     -0.273270601723    -2.280103762877    -2.364118179232
O      0.612039963060    -3.154218349074    -2.138309733347
O     -1.621468607021    -2.498629100131    -2.035620783492
C     -1.894854088750    -3.690542673921    -1.286025930938
H     -2.984220737725    -3.751131533418    -1.075386670297
H     -1.600445575799    -4.597792529944    -1.860644544168
H     -1.354141511181    -3.675078529593    -0.311444655904
Pd     1.045408973398     0.437706356942    -1.379132344698
C      0.749198162597    -0.756682996685     1.214289470691
O      0.842584527173    -1.078623601897    -0.094590733219
O      0.576924596677    -1.592021194832     2.118267157652
C      0.839546109800     0.774013107256     1.520322430395
H      1.417338185847     0.876645060140     2.448377771908
C     -0.538005189602     1.366623293249     1.728720120284
H     -0.452678805939     2.441076092243     1.988861808632
H     -1.126531251315     1.277769490441     0.791318628554
H     -1.065982145445     0.836199957888     2.548773399910
N      1.438594123562     1.466016413242     0.365871471294
C      2.232507854194     2.498631886460     0.373744717473
O      2.673738948077     3.088243337728    -0.723641566843
C      2.718813269536     3.080657166836     1.639347982208
H      3.361213842779     3.949006510008     1.403454590522
H      1.847995408101     3.416326152982     2.224486698159
H      3.309556309030     2.319622917436     2.175996609270
N     -0.562239160852     1.942801413105    -3.817202300981
C     -1.384438936931     2.479929787093    -4.771069216745
C     -1.081394256960     3.703655242728    -5.341546773668
C      0.048295759996     4.393771027542    -4.952911204012
C      0.853323311688     3.832749570077    -3.997784688989
C      0.493922443810     2.579226359929    -3.447188405568
H     -2.272933380235     1.941467478966    -5.078998183911
H     -1.735262945712     4.116842816271    -6.090835785591
H      0.293562496113     5.356550377270    -5.392519225437
H      1.744925362647     4.305702389737    -3.636927929177
O      1.351557251391     2.108991624947    -2.530231690718
H      2.641190276097    -2.294100453688    -0.957696800645

