# STO-3G

title

0 1
C      1.373979757877     2.855077529372    -0.462964878911
C      2.563279157772     2.938076791236    -1.215684933123
C      2.805662736319     4.065585406729    -2.026162800686
C      1.861938886283     5.108916288462    -2.096309958669
C      0.672334134386     5.017472630445    -1.351225742007
C      0.426239784557     3.896879534213    -0.527830588301
H     -1.039483489100    -0.279319750563    -0.534737746854
H      3.272820975019     2.115854412477    -1.201714695811
H      3.724094359872     4.118197152269    -2.607006733415
H      2.048512101775     5.975479850078    -2.726030719740
H     -0.068839933427     5.812237646801    -1.403796151761
H     -0.505382321554     3.860380765934     0.029071609419
C      2.002648336525     2.278170217280     2.342163320598
H      2.525024535923     1.529908016326     2.936580006603
H      2.636211624998     2.995468276661     1.834452401637
C      0.626069198998     2.510196433875     2.489329662231
H      0.201893250038     3.393506939139     2.039279386304
C     -0.213603693727     1.890065868717     3.529487951883
O     -1.317793305847     2.428073983451     3.799695148627
O      0.339331938935     0.883897363172     4.343024901025
C     -0.543156138274     0.325556130552     5.327378250568
H     -0.013472684824    -0.470766243691     5.892937984825
H     -0.878402411300     1.104320375604     6.049175372135
H     -1.435882368527    -0.135652539468     4.846246163566
Pd     1.102337475553     1.219608605431     0.654853837878
C      0.181592547348    -1.830763634728     2.027051443631
O      0.960433215618    -0.649050400751     1.967838512069
O      0.429590983980    -2.677086536926     2.885581395019
C     -0.906276246600    -1.915576714588     0.945286726852
H     -1.740184903948    -2.415599804172     1.455970248476
C     -0.465396170750    -2.784822260021    -0.213254013547
H     -1.276965851893    -2.834688472771    -0.968597907741
H      0.433709426072    -2.345837437081    -0.687567322636
H     -0.232791792503    -3.811036681669     0.138895135110
N     -1.347815486100    -0.628895735294     0.431078362251
C     -2.101694300753     0.127081579749     1.261806028695
O     -2.334086797370    -0.162028012814     2.465026192853
C     -2.673438226152     1.350638660795     0.671531077989
H     -3.371053504268     1.036585921004    -0.122672517175
H     -3.202114701314     1.910473288243     1.463929844481
H     -1.854967443965     1.944196396429     0.238925246204
N     -0.408262012929     0.084828780832    -2.018986951711
C     -1.148201898815    -0.081950357369    -3.156573918759
C     -0.523495957778    -0.376888818675    -4.354309088908
C      0.847403771988    -0.506652730187    -4.415172838153
C      1.572275127743    -0.332023754749    -3.265987666948
C      0.895429228121    -0.018526578260    -2.061748196144
H     -2.226919503284     0.009609801998    -3.112388329470
H     -1.118301892992    -0.509566830103    -5.241933781132
H      1.341888138684    -0.741967606688    -5.353451556602
H      2.638193480896    -0.415708111983    -3.241108421170
O      1.668995593127     0.129648789086    -1.012835893980
H      1.609267926403    -0.659183802367     2.706310732125

