# STO-3G

title

0 1
C      1.655664138850     2.043807027254     0.247590137723
C      3.034689317737     1.908736286861    -0.014631728907
C      3.718011325290     2.940630386722    -0.690415623728
C      3.029926547847     4.100210214755    -1.098435713542
C      1.653962306298     4.226712992526    -0.829669098937
C      0.960167658158     3.201274783294    -0.150836785971
H     -2.116598904169    -0.995864498621    -0.728446461898
H      3.574222370845     1.015239157414     0.293652022125
H      4.781107247839     2.833586642837    -0.894059011851
H      3.559214683080     4.894681535451    -1.618491140982
H      1.115186439315     5.118827167421    -1.140912425180
H     -0.101503361395     3.315986976218     0.051618220565
C     -0.152903537000     1.671164784311     2.742252799347
H     -0.276340620662     2.702291426660     2.425961258751
H     -1.078731537463     1.114538155043     2.861222375027
C      1.079931820452     1.183003277831     3.204999191452
H      1.123631810756     0.194124780737     3.644613587777
C      2.283242659130     2.012574044655     3.390842771311
O      3.369961738046     1.440995514195     3.664373537578
O      2.229980620578     3.384938606980     3.092414752924
C      3.483916096544     4.080512499170     3.103243147139
H      3.312902348043     5.148881662165     2.850050209590
H      3.957433879925     4.030477190588     4.109908720313
H      4.177456665142     3.654506144042     2.343144395445
Pd     0.752789518002     0.500297286708     1.099791289507
C     -1.441044270506    -1.794340571204     2.224262551338
O     -0.210348248547    -1.521074973398     1.632059094345
O     -1.521380444613    -1.972614845918     3.439397718277
C     -2.649427701953    -1.801780934391     1.242286862609
H     -3.524723666234    -1.606679306797     1.871111665063
C     -2.819212430717    -3.139723917871     0.554718918577
H     -3.743708991709    -3.120507672378    -0.058910662936
H     -1.957518532573    -3.330860634931    -0.118143385280
H     -2.898474566654    -3.953402133165     1.305142196151
N     -2.538368223061    -0.773984783789     0.210783260780
C     -2.729425455340     0.519056671518     0.563530138388
O     -2.940546663749     0.921876215749     1.739955228771
C     -2.697900707454     1.498935663654    -0.541357656405
H     -2.904830766006     2.504460687725    -0.135988044611
H     -1.706111655265     1.458402947663    -1.017409827702
H     -3.476816887623     1.208891218110    -1.268196970659
N     -1.062372454697    -1.023273756738    -2.135987040493
C     -1.492027839314    -0.824700712010    -3.419089111039
C     -0.690115316940    -0.147881472781    -4.320586746834
C      0.552464452610     0.316149344510    -3.942668432142
C      0.971147349014     0.086186977937    -2.658110705234
C      0.117353333441    -0.613707678605    -1.774229329974
H     -2.471170707518    -1.179557219964    -3.718450107816
H     -1.043047762136     0.011714188966    -5.325799917455
H      1.186506440564     0.846891421920    -4.647804290025
H      1.928455132614     0.410167246823    -2.305056343452
O      0.581770862781    -0.813026562547    -0.549607349986
H     -0.124069317844    -1.549625028450     0.594248091349

