# STO-3G

title

0 1
C      3.683149713988    -1.999662204201    -1.182763424100
C      4.584250134568    -0.914241043196    -1.178424291438
C      5.918060219335    -1.102568316647    -1.593193560666
C      6.355686860117    -2.374840812626    -2.013036636149
C      5.457505014221    -3.461061628694    -2.018874973624
C      4.124587878179    -3.271363617145    -1.603389931360
H      2.850142246044     2.374831375075    -1.899150951226
H      4.255202799831     0.072418163654    -0.861195599207
H      6.608256627745    -0.262080148168    -1.590607125447
H      7.385544041695    -2.518121313161    -2.332537254971
H      5.792081541578    -4.444399610464    -2.341712462185
H      3.424601739684    -4.104987469072    -1.603575064783
C      1.417338882831    -0.562809714837    -3.394818960649
H      2.279793998556    -1.099812503400    -3.009945354838
H      1.639496080572     0.259564061120    -4.064633536357
C      0.115173320323    -1.005544984440    -3.187541588784
H     -0.704451540982    -0.521011890013    -3.697143978739
C     -0.218166159944    -2.268792694703    -2.504762319828
O      0.708437779991    -3.028421668213    -2.105977529545
O     -1.570067936133    -2.575970753775    -2.280807542245
C     -1.818302354763    -3.722369667818    -1.454408316396
H     -2.914377934777    -3.863695454650    -1.337672276573
H     -1.396269361771    -4.644226297962    -1.915407996041
H     -1.377937390095    -3.580156352614    -0.439920575007
Pd     0.680944529338     0.589079328631    -1.563565894874
C      0.318228148000    -0.489936231422     1.051291835950
O      0.011032417977    -1.264151686955     1.971273066655
O      0.665748936094    -0.894221901677    -0.190573616005
C      0.324303050912     1.071658213144     1.238142507085
H      0.709307161728     1.271135233428     2.246502738345
C     -1.062640238561     1.660862691783     1.128883289124
H     -1.009934799873     2.757990815765     1.287580359724
H     -1.474946429679     1.470154356605     0.117896410233
H     -1.730993441897     1.212778666312     1.893774084381
N      1.125943135865     1.636173828570     0.140695275150
C      2.290010659756     2.237040040606     0.226385747140
O      3.092607879025     2.466243276290    -0.774499054366
C      2.779764801692     2.713753518827     1.536379245184
H      3.722136210501     3.271005928264     1.378920417144
H      2.020377894769     3.391984801545     1.959462442198
H      2.974584720173     1.844858289554     2.186792384513
N      0.367360416731     2.146030134762    -2.858768125357
C     -0.921833574850     2.449544505042    -3.197161968249
C     -1.176804560525     3.340960979677    -4.218132866656
C     -0.139247010305     3.951329135142    -4.890159221951
C      1.144280492218     3.659027563420    -4.514189449562
C      1.377836352579     2.754138647589    -3.452286545678
H     -1.742359823308     1.963562009140    -2.682663363915
H     -2.195599540542     3.564085512664    -4.487969443185
H     -0.334803381538     4.657221546556    -5.692764434381
H      1.997701759442     4.117214382935    -4.971242784577
O      2.610222906326     2.555830828078    -3.120834239399
H      2.652960004750    -1.873279414866    -0.855475692855

