# STO-3G

title

0 1
C      2.158628245505     2.129667297463     2.413479257707
C      2.339011828935     2.387345213677     1.018324985368
C      3.652889082072     2.531504799241     0.482640132122
C      4.759054852848     2.481164553412     1.333009761135
C      4.581357561742     2.276444571999     2.731013414646
C      3.304682956928     2.070004941685     3.259136990138
H      1.147319989892     2.132376874054     2.823126545816
H      1.476271703272     2.642410119697     0.410320292426
H      3.780607940915     2.726785016620    -0.579052766384
H      5.759269265245     2.630083223088     0.932940373737
H      5.448232183993     2.291294007863     3.388103832136
H      3.165558482273     1.917050922911     4.326475651927
C      0.196190032279    -0.883364608733     3.653979997632
H     -0.299433954735     0.082388245194     3.684773207391
H      1.229304737977    -0.917947732747     3.992371176385
C     -0.411397661144    -2.013839918445     3.213029074495
H      0.141034213699    -2.943833527857     3.169299420035
C     -1.797761758500    -2.100135502916     2.723473460812
O     -2.501952573079    -1.058319170124     2.619646320492
O     -2.305495645576    -3.362395033558     2.369265585695
C     -3.583721418869    -3.359472203204     1.717883086054
H     -3.875468927406    -4.403262312429     1.474656724596
H     -4.365699791368    -2.921794010622     2.378566082181
H     -3.538401788399    -2.784164217718     0.764153871501
Pd     1.542020313436     0.121910656870     1.244873389624
C     -1.432195980696    -0.966752036440    -0.895934687949
O     -0.993352145720    -2.057012555608    -0.214863381579
O     -2.500903375788    -0.990126117482    -1.528108038378
C     -0.581288744594     0.351559980446    -0.831530356041
H     -1.210338016445     1.095149886531    -1.339140701172
C      0.702174451391     0.259681036525    -1.631804995647
H      1.222174079196     1.239249498951    -1.621704680092
H      1.377421956233    -0.510444563173    -1.216746355456
H      0.471716965107    -0.004538262500    -2.685341386378
N     -0.234963486321     0.785136234521     0.534640143393
C     -1.066035807278     1.454848270896     1.372057111045
O     -0.730221937828     1.857297517821     2.528006173210
C     -2.448367828931     1.760843117750     0.926541314693
H     -2.412293421328     2.446060541324     0.065623670538
H     -2.961167181972     0.811704231926     0.693058449576
H     -2.984539848219     2.250500837572     1.760553884443
N      3.149928014665    -1.144969915260     1.736089488597
C      4.366877323883    -1.247300548029     2.346881765839
C      4.976729338164    -2.485313685829     2.452077256709
C      4.371562288731    -3.619901264309     1.943802764962
C      3.150544065242    -3.494028016972     1.330547523558
C      2.567810621295    -2.215005452267     1.244149217918
H      4.851480913441    -0.372203185839     2.753717185244
H      5.935705529440    -2.561316211242     2.937913603024
H      4.852174232687    -4.590956256607     2.029134833976
H      2.621247941868    -4.328061214905     0.916393777016
O      1.405311212441    -2.063560636356     0.680135864383
H     -0.068845288358    -2.044675473493     0.171277889694

