# STO-3G

title

0 1
C     -1.109110556462     2.209144080412    -2.372395546625
C     -0.249252271168     3.177341100993    -2.930224394503
C     -0.363597902359     3.528444173439    -4.290114774994
C     -1.339794568555     2.912971616192    -5.098796407692
C     -2.206006912353     1.950348449254    -4.543464275785
C     -2.089650612792     1.601548403086    -3.182987305565
H     -1.024821841430     1.938532826315    -1.324332206950
H      0.499627409616     3.659564111137    -2.306253056664
H      0.300924526614     4.277246180373    -4.715172164915
H     -1.427097095466     3.183127246220    -6.148634945086
H     -2.966800851028     1.480650408375    -5.162875401078
H     -2.769103169376     0.870675549051    -2.750195807466
C      1.529734803391     1.097814415330    -0.467102639407
H      1.298952058630     1.900846079470     0.229814604445
H      1.189508498079     1.244677042526    -1.485032963161
C      2.481110482212     0.098867534798    -0.163215200085
H      2.820775604067    -0.553732203006    -0.959090728816
C      3.357157673396     0.107735309976     1.022407359259
O      4.190423750960    -0.825740164168     1.163150722978
O      3.260592886439     1.150462884681     1.960774597294
C      4.236988483107     1.142377513371     3.011304702377
H      4.052956303307     2.003219738857     3.689941859958
H      4.172619967459     0.205236101031     3.608320118991
H      5.264732281566     1.242888512127     2.594249025061
Pd     0.461911306130    -0.721045621640     0.243736019481
C      0.429371953550    -1.088222377457    -3.668454823067
O      0.263567167730    -1.303729142613    -2.504875080918
O      0.601444154500    -0.885887614584    -4.829282639764
C      0.776428388892    -2.348840558790     2.193317134296
H      1.655387581274    -2.935887541041     1.940021000974
C     -0.485875229628    -3.021234155805     2.634422398004
H     -0.447107708218    -3.195552315023     3.727809343608
H     -1.359096488290    -2.381520870007     2.388934408029
H     -0.589966393376    -3.991543011241     2.108919177983
N      0.770772312565    -1.021578484344     2.261782609274
C      0.485918945724     0.003436653287     3.056204115334
O      0.019746804417     1.126286362500     2.666065528275
C      0.807800100198    -0.173387235431     4.482100597013
H      0.183882575759    -0.989691097863     4.880115460262
H      1.878422844040    -0.423913541234     4.557755036352
H      0.595277073794     0.769390509751     5.018811650666
N     -1.730912123948    -0.611366275917    -0.001654778700
C     -2.357140498579    -1.581857594110    -0.738024319786
C     -3.699538661390    -1.463596077520    -1.038338087799
C     -4.416933601753    -0.364184247456    -0.620353459172
C     -3.764836553723     0.598399932040     0.103931972086
C     -2.395215872359     0.432989257394     0.403225891104
H     -1.798850552313    -2.446712736992    -1.077169947054
H     -4.180683299201    -2.231461942818    -1.622120429575
H     -5.470179189660    -0.258868156627    -0.866823852439
H     -4.258301076424     1.486210168182     0.446864885108
O     -1.874032199364     1.431663543670     1.091214512823
H     -0.979205953550     1.289388754926     1.617146353026

