# STO-3G

title

0 1
C      0.825956611852    -1.921083881536     2.201331073480
C      2.150646768901    -1.943082730217     2.683515629650
C      2.404647900881    -1.943055855327     4.069643995182
C      1.329511397445    -1.926876532900     4.981223932701
C      0.003437533414    -1.918658070485     4.502738730550
C     -0.248324196903    -1.916501881169     3.115615486456
H      0.635623178488    -1.918505237917     1.130693526616
H      2.979842023885    -1.970862310032     1.978019144192
H      3.429800122830    -1.967180746735     4.433669275173
H      1.522215706871    -1.934075576780     6.051807009949
H     -0.827733507149    -1.922414005874     5.204582028495
H     -1.271927007483    -1.921411235504     2.745489212550
C     -0.569452042247     0.896483087787     1.064353682291
H     -1.351867162013     0.190398454295     0.798232055674
H     -0.042785375441     0.669293946347     1.982502980886
C     -0.430651327541     2.130554909886     0.412443034428
H      0.253933040869     2.873165930986     0.794526302291
C     -1.363894580086     2.620332343841    -0.619164922249
O     -2.481874511974     2.056713953688    -0.763009564427
O     -1.075992891475     3.840314593940    -1.253488870229
C     -2.020315731105     4.262520419257    -2.247563679924
H     -1.682316218633     5.222736126604    -2.693219375771
H     -2.098218262233     3.508106348043    -3.063672910936
H     -3.025876731271     4.423190213728    -1.796444711496
Pd     1.094282107794     0.689940421433    -0.404865244133
C     -0.672399891106    -0.995954826721    -1.822987038927
O     -0.196150748400     0.233008992868    -1.894655110946
O     -0.248567082815    -1.842413761356    -0.961997612327
C     -1.931214917123    -1.346720936679    -2.665331624530
H     -1.887294232656    -2.430349190460    -2.849969969907
C     -1.996742254383    -0.619834918265    -3.985603292307
H     -2.876128852562    -0.975396402264    -4.561349942073
H     -2.115018732423     0.467494514539    -3.795008143745
H     -1.072894651360    -0.798145723694    -4.573183106074
N     -3.165779403048    -1.007333745071    -1.942116841752
C     -3.370403804408    -1.152385699059    -0.684381107726
O     -2.552742179213    -1.666780248292     0.304898836968
C     -4.674022923952    -0.705502113978    -0.190921698899
H     -4.749594446237     0.375745706641    -0.407156670280
H     -5.451190473105    -1.256993156339    -0.746153633724
H     -4.757307884493    -0.889405802919     0.894759641186
N      2.651051675144     1.036424727270     0.863219850091
C      2.995570956377     1.389603398098     2.134252828900
C      4.283927628247     1.150622532448     2.579089230398
C      5.223139059762     0.557919078859     1.752343203109
C      4.849723308752     0.192156331592     0.482619855540
C      3.526355911906     0.441603878480     0.069124624069
H      2.267844709861     1.861648774906     2.783726346855
H      4.555705903568     1.433886141690     3.582361559891
H      6.234036883185     0.373648915067     2.105744107212
H      5.512007384708    -0.292772727011    -0.204968719324
O      3.094503297237     0.049369344967    -1.096930611249
H     -1.680531358908    -2.008515428720    -0.045834180229

