# STO-3G

title

0 1
C      2.056936821844    -0.217073156718    -1.372855635080
C      2.434172191062    -1.301872736723    -0.555023661644
C      3.646390167132    -1.253552016304     0.162726784010
C      4.483572405353    -0.123703219222     0.061613426607
C      4.108732450716     0.958604535756    -0.760361542051
C      2.896973574016     0.910561746003    -1.478010511029
H      1.133974406247    -0.273426320111    -1.941921614274
H      1.787080200825    -2.174307284568    -0.493947419731
H      3.938988368474    -2.093763949647     0.788500788863
H      5.423278101255    -0.091394917628     0.608734707740
H      4.760133569941     1.825420284587    -0.851773795511
H      2.616959622470     1.734109760691    -2.132745178680
C     -2.159180110711     1.548022663156    -0.037518229985
H     -2.324850428246     2.591158846977     0.209361652200
H     -2.994519920052     0.968553674682    -0.420145144256
C     -0.996788518089     0.870939988451     0.364188008305
H     -0.954190603356    -0.201042275065     0.259381439037
C      0.078128827112     1.430805699301     1.201286008461
O      0.069575307303     2.654456054694     1.500587069803
O      1.004043549748     0.545367012857     1.774200804235
C      2.098829963000     1.151873628974     2.473310327111
H      2.777297756971     0.357008017187     2.850399341785
H      2.686562873374     1.806523343596     1.790365109621
H      1.736052603509     1.746739358988     3.341676947160
Pd    -0.848508095451     1.543578967320    -1.817241194129
C     -1.958692405153    -1.271514456255    -1.926937462228
O     -1.100439548146    -0.378532704693    -2.371143342921
O     -3.059092808366    -0.987363487913    -1.347507923730
C     -1.398149394099    -2.724991362217    -1.962627769679
H     -0.605203672481    -2.752939434329    -2.714492168720
C     -2.445411062659    -3.764109080245    -2.308831564056
H     -1.965591378047    -4.763862312529    -2.360717896742
H     -3.235407285652    -3.790242580433    -1.532040325252
H     -2.902072572988    -3.532015992991    -3.293246152491
N     -0.787869508621    -3.091667095724    -0.669540703810
C     -1.269680338613    -2.851565714242     0.498417594754
O     -2.408532253837    -2.187767261546     0.874604902884
C     -0.483170041458    -3.348565303511     1.629620555872
H     -1.003908755322    -3.127224487457     2.578161302110
H     -0.357456957566    -4.437066407556     1.499611301082
H      0.500704209910    -2.846663557868     1.608638457534
N     -0.223141036095     3.480183270045    -1.750647289744
C     -0.089926011305     4.601465332081    -0.985014615642
C      0.544705975811     5.711958991964    -1.515253718307
C      1.046688050826     5.697089201184    -2.805237860853
C      0.901842207389     4.558064398534    -3.558156865694
C      0.247772991192     3.449782832868    -2.985649832440
H     -0.492995535390     4.630903241907     0.019290556635
H      0.647038468293     6.596964070640    -0.909461832507
H      1.545611919003     6.571054341574    -3.215056641802
H      1.264532439590     4.470125344295    -4.561585597289
O      0.094572270506     2.335423882724    -3.645598587652
H     -2.920661442802    -1.797159383839     0.105168289825

