# STO-3G

title

0 1
C      3.204242227264    -1.341286540569     1.016216684722
C      4.008751559283    -0.347643051159     1.610690708628
C      5.405641637920    -0.355824039058     1.426940338334
C      6.008772297204    -1.362794128637     0.645768694049
C      5.211637245056    -2.368831716493     0.062836751950
C      3.814318355979    -2.359160398811     0.252989796057
H      2.125263102507    -1.334344612379     1.157103716376
H      3.545490681436     0.430441284288     2.215100678093
H      6.018056457297     0.412178904984     1.895912353219
H      7.088056140904    -1.374630356295     0.509996434423
H      5.676813705451    -3.162056779817    -0.518654273192
H      3.204480598422    -3.153763955933    -0.173053510219
C      1.047221271831    -1.080040322608    -1.936326915104
H      0.087137849158    -0.894523829349    -2.408248083834
H      1.056553035213    -1.818017026560    -1.141790114937
C      2.222735540733    -0.503036315273    -2.400832899825
H      3.160030960442    -0.811107678065    -1.965591096444
C      2.306277608326     0.376233949295    -3.579463196263
O      1.250479434191     0.852734184645    -4.074340834747
O      3.573586645397     0.737339156296    -4.068101664314
C      3.581630414915     1.676470805267    -5.152580142724
H      4.631015490322     1.883899352163    -5.453870510370
H      3.040793485712     1.267041873716    -6.036058033923
H      3.112184423860     2.638988143771    -4.845285096808
Pd     1.325153698412     0.830198794711    -0.711316833577
C     -0.922452109994    -0.665124496057     0.553439848169
O     -0.584426948991     0.295892772696    -0.333783626746
O     -0.105944183575    -1.508787640139     0.989379773336
C     -2.424565296846    -0.677946299551     0.980503443372
H     -2.411576325361    -1.241666725931     1.920629452054
C     -3.261099728962    -1.463205843856    -0.015013426887
H     -4.292254697465    -1.579871921301     0.380254824351
H     -3.310367582639    -0.915854479165    -0.978106561151
H     -2.826085380779    -2.471213057049    -0.179410720818
N     -3.125888133147     0.575200814031     1.240449627090
C     -3.129297870813     1.658309948219     0.550821757377
O     -2.424937640947     1.989809826335    -0.571972848680
C     -4.045478444868     2.704944447619     1.011642535444
H     -3.982525604545     3.579276899974     0.339976495700
H     -5.064406457763     2.282690153020     1.009708554066
H     -3.751498446409     2.984584712957     2.038712525651
N      3.092356618387     1.874250625670    -0.711851774599
C      4.407450234669     1.896459181915    -1.075754435944
C      5.247295120960     2.852969325132    -0.530372774146
C      4.772312402432     3.778879730707     0.382660304851
C      3.452150503606     3.721820951874     0.755115680428
C      2.635454648812     2.727743469755     0.183596861720
H      4.791660909032     1.175350623060    -1.785975864664
H      6.283538446276     2.871034459096    -0.823764478681
H      5.435223865548     4.527123718877     0.808500924277
H      3.018304968323     4.382767274438     1.476954045689
O      1.392081863429     2.568060856179     0.556654059805
H     -1.638797598007     1.366491672477    -0.681110972437

