# STO-3G

title

0 1
C      2.123209463200     2.865875079921    -0.519907573601
C      3.483826524528     3.147576989620    -0.759093030497
C      3.840207580834     4.176671859222    -1.655869667787
C      2.843673132739     4.923224174838    -2.314472376815
C      1.486214887453     4.634869945404    -2.077623346975
C      1.122350726068     3.608911526306    -1.179048068119
H     -1.101192923387    -1.085462486667    -0.076121047956
H      4.264423759854     2.565596577883    -0.273402510043
H      4.891549372351     4.387202042540    -1.839297515171
H      3.121202351402     5.715511686304    -3.005232090354
H      0.708774649990     5.198761184936    -2.588531675791
H      0.068575455215     3.382705620327    -1.025439093766
C      1.978906506752     2.562435444020     2.460125321850
H      2.265232810357     1.855354151118     3.233849391027
H      2.728419481724     3.273241977078     2.130437552078
C      0.631799833458     2.731153079734     2.101568284269
H      0.357454571633     3.531728587779     1.430273006623
C     -0.500329573042     2.114209287374     2.816281812823
O     -1.661776388122     2.344216635440     2.389497562675
O     -0.280364471218     1.545919647848     4.083844141438
C     -1.450483105216     1.120727647676     4.795989240318
H     -1.152530652550     0.703534580689     5.781197068325
H     -2.142735289580     1.974506563467     4.972991357565
H     -1.986790524535     0.324124984480     4.238090486148
Pd     1.665394751832     1.337015993167     0.679464516620
C      0.755462704413    -1.439458560476     1.482456213758
O      1.433125067102    -1.960667572263     0.475970097761
O      1.076144235126    -0.316218700257     2.011822941104
C     -0.621716019797    -2.040472756696     1.795141512127
H     -0.925366078398    -1.814637021050     2.820518961009
C     -0.745638348067    -3.521077810091     1.519570732500
H     -1.774838012795    -3.853237951424     1.767080039350
H     -0.562390432680    -3.710350954808     0.441184613570
H     -0.015415383394    -4.088020254447     2.131474993108
N     -1.490400819100    -1.301481007879     0.861745594312
C     -2.645819003496    -0.743414902762     1.306138703993
O     -3.135597020821    -0.907440018640     2.450140180188
C     -3.357315355645     0.092681936151     0.317997514946
H     -3.617474242261    -0.549793733658    -0.537854486982
H     -4.263218088872     0.503143958866     0.795884607704
H     -2.679265782566     0.908310885866     0.012830317240
N     -0.287814018349    -0.453373381691    -1.747191353805
C     -1.188564559333    -0.357614370945    -2.773622565732
C     -0.849512530467     0.315175958234    -3.934432294979
C      0.401073532477     0.878609019780    -4.075820914550
C      1.292515826768     0.746726920335    -3.043927489204
C      0.893377540248     0.051726753841    -1.880273841663
H     -2.173292193727    -0.796425424617    -2.666586039394
H     -1.570287689548     0.392121089054    -4.731193452277
H      0.674512877175     1.408992758057    -4.983871517590
H      2.281209528846     1.157348467396    -3.085517212516
O      1.836811269042    -0.048949680707    -0.919793700117
H      1.784472514318    -1.151182198112    -0.221175453805

