# STO-3G

title

0 1
C     -0.088871421990     1.166656971866     2.831193337691
C      0.690731186368     1.548504207987     1.703155462599
C      1.846528173849     0.787795723120     1.377884889422
C      2.308382154099    -0.242725228910     2.256756381126
C      1.566363900677    -0.575342766084     3.394760669352
C      0.338871927517     0.096848944887     3.650064421409
H     -1.016919368499     1.686577542721     3.029906127371
H      0.395755220763     2.385613516293     1.079203644843
H      2.421633194255     1.051895666245     0.496054497052
H      3.217467986185    -0.783452554658     2.013297858719
H      1.899838533246    -1.369118081553     4.055801545614
H     -0.269451696859    -0.195244051175     4.502687464647
C     -3.292714372937     1.878603347671     1.874909467666
H     -3.767725597307     1.751302776405     2.847042251597
H     -3.262590438931     1.005258287872     1.231095729191
C     -2.772454058268     3.053411287176     1.445129790392
H     -2.309546076188     3.091472455188     0.468725068636
C     -2.771419390855     4.307222213368     2.217662800951
O     -3.224914775525     4.322725987800     3.394805398118
O     -2.187471280273     5.451273688962     1.646358682933
C     -2.178476080044     6.628009131068     2.466601173009
H     -1.696337895045     7.460262414532     1.909959711513
H     -3.216358599865     6.937402834348     2.725906974124
H     -1.599153434918     6.453738437442     3.401668534140
Pd    -0.238766893290    -0.472208868610     0.829771663488
C     -0.217404116256     1.419272271334    -1.581782883075
O     -1.419710610874     1.596580907514    -1.006532764842
O      0.636383672595     2.330125399612    -1.624372089533
C      0.133568677939     0.005809815706    -2.161165297908
H      1.066206621651     0.175645671035    -2.715281050296
C     -0.922583677740    -0.533421508917    -3.111826688698
H     -0.471564852690    -1.254382651063    -3.819685705814
H     -1.721561324372    -1.053636727731    -2.550327723692
H     -1.370660424722     0.291252497859    -3.704800524436
N      0.346870687837    -0.940688583020    -1.046141370368
C      1.049930795112    -2.089893477690    -1.005672960104
O      1.172784468064    -2.789140649712     0.046474390117
C      1.736982336617    -2.552216267142    -2.234042069271
H      2.314258237275    -3.461230234507    -1.985042603855
H      0.975235283124    -2.805049288683    -2.985481539688
H      2.425131531068    -1.764414427891    -2.582737822342
N     -1.805962926730    -1.708294720373     0.648236186308
C     -1.676260539342    -2.969011588115     1.161031607429
C     -2.717662852077    -3.864631645828     1.040876002846
C     -3.881898745447    -3.506602590648     0.398488081603
C     -3.978034641949    -2.247278953417    -0.133786077186
C     -2.893935699559    -1.344729614489    -0.019921186851
H     -0.775880089682    -3.248910614932     1.695085533469
H     -2.614192895916    -4.851993768200     1.459480144818
H     -4.703842749079    -4.211571377734     0.307089086913
H     -4.850847065721    -1.920509404823    -0.662060453166
O     -3.049077337488    -0.210317727127    -0.594827024145
H     -2.089852707391     0.775600411356    -0.853210277439

