# STO-3G

title

0 1
C      2.857907979662    -2.475125581558    -1.722514322267
C      4.136481298966    -1.969952803233    -2.033136373979
C      5.182828797382    -2.848650763717    -2.373768825740
C      4.954912433570    -4.239060418745    -2.401656471910
C      3.678851501030    -4.747388920281    -2.089064183829
C      2.632619080857    -3.866101994252    -1.750872992917
H      2.053314074459    -1.790048547685    -1.463590833927
H      4.314903372468    -0.897690560107    -2.004400321247
H      6.166603073720    -2.452445854126    -2.614943223893
H      5.762680630934    -4.918401710632    -2.664303321882
H      3.499720217491    -5.819873784232    -2.108376571084
H      1.650245567789    -4.264587898001    -1.507728293595
C     -0.506708079981    -1.628547877520    -2.977052924346
H      0.298490461544    -2.355138685769    -2.899133500181
H     -0.766896283651    -1.339692917888    -3.994353549511
C     -1.501774445015    -1.501134296446    -1.960660961510
H     -2.448522725119    -1.043241841544    -2.209544631805
C     -1.499497235233    -2.267170607790    -0.700584811945
O     -2.382528246577    -1.997495190960     0.152360339013
O     -0.360521979295    -3.016563910936    -0.381860618091
C     -0.218324098260    -3.412861783079     0.990575475115
H      0.747219267209    -3.950791717928     1.122842881235
H     -0.183045898812    -2.526481818713     1.663632352225
H     -1.046794227473    -4.086034091659     1.303443444467
Pd    -0.050155253532     0.075464668384    -1.662172819361
C      3.079926801274    -1.216600063289     1.488735409024
O      3.447682164793    -0.282234287550     0.844232409613
O      2.753148673256    -2.161306367119     2.137179720358
C     -1.488154001532     1.505707161135    -0.741265883966
H     -2.496213165577     1.106156917459    -0.610072103416
C     -1.260043937705     2.655334667073    -1.671193983866
H     -2.190043533893     2.881499368143    -2.230258634530
H     -0.969321165806     3.544698873303    -1.073055345644
H     -0.441864609394     2.426218344134    -2.381716583540
N     -0.449977445777     1.351244393656     0.094796099188
C     -0.346624667792     0.704843662841     1.297472338035
O      0.568726439240    -0.103567653984     1.572199289755
C     -1.295058392123     1.127182455364     2.349900131586
H     -1.200152352927     2.219546218408     2.469536969199
H     -2.311297513832     0.839804037474     2.038244620904
H     -1.024883989040     0.615185187199     3.292159015920
N      1.912757540942     1.006633461300    -2.049785693860
C      2.589301191103     1.730867243409    -1.102698353421
C      3.732502306260     2.420898546431    -1.464962764394
C      4.215526218594     2.358043317814    -2.754873381621
C      3.518142857755     1.616581630574    -3.676150570036
C      2.354968623651     0.943511713004    -3.261759159885
H      2.218026395724     1.783038449967    -0.086118281518
H      4.266406141019     2.973910542734    -0.709411332620
H      5.127560815912     2.879610740269    -3.032342259595
H      3.842721423641     1.515907643057    -4.692104689999
O      1.742052707651     0.233851814677    -4.214542503848
H      0.960436386513    -0.240983595577    -3.810615219544

