# STO-3G

title

0 1
C      3.660711954262    -2.211721693184    -2.774235135593
C      4.927365733441    -1.706039797630    -3.127715402592
C      5.901970951433    -2.556695152298    -3.685290616779
C      5.610136924342    -3.919523514447    -3.890884771448
C      4.343956032629    -4.428290915124    -3.539517387736
C      3.370600835013    -3.576095138755    -2.981513553784
H      2.917220354211    -1.550596176762    -2.342251091240
H      5.151044255864    -0.651607781772    -2.977406404219
H      6.877177565813    -2.160520756555    -3.958154860898
H      6.360994310563    -4.577778457738    -4.321558740146
H      4.117262471280    -5.479631639812    -3.700729042240
H      2.392330485139    -3.971024668807    -2.718718720800
C      0.389072025261    -2.076001912732    -1.604951320000
H      1.007229815436    -2.424084224319    -0.783616480124
H      0.881271085106    -2.002054765392    -2.570347867327
C     -1.013186495377    -2.043676037533    -1.550386550015
H     -1.571711339925    -1.890664514186    -2.463034266527
C     -1.820307360423    -2.446083953437    -0.387487815851
O     -3.060485030313    -2.249971898998    -0.453238537825
O     -1.179161732278    -2.579311129332     0.851343865974
C     -2.023927480297    -2.863799874867     1.975358110008
H     -1.395670282175    -2.967346592410     2.887681303736
H     -2.749706292499    -2.037557488913     2.149677030135
H     -2.575259659095    -3.819922950233     1.826574867175
Pd    -0.149030473022    -0.027667705507    -0.999390998662
C      4.111588472868    -2.906610882552     0.473809745344
O      3.095929629449    -2.279765033647     0.411747685938
O      5.122586500336    -3.530418958188     0.561367292160
C     -2.041709828792     1.066374216447    -0.816295008750
H     -2.814512509257     0.630148991000    -0.180125258445
C     -2.362866070234     1.322007429366    -2.255127039589
H     -3.251413766276     1.983566823137    -2.306027349523
H     -1.522066203304     1.839824668005    -2.763195555279
H     -2.594520047802     0.368484420684    -2.768336426216
N     -0.979764371555     1.788249872477    -0.373712964500
C     -0.630915214130     2.275125601884     0.849883733212
O      0.448449442645     2.028637683398     1.444291994273
C     -1.573901276193     3.257518160748     1.425214836510
H     -1.681676545027     4.082710937506     0.700647770381
H     -2.538413926479     2.756026104353     1.600247546313
H     -1.156806646141     3.636798768996     2.376311403636
N      1.965983742089     0.614584640305    -1.005980169003
C      2.759596160886     0.735604128123     0.104724261765
C      3.997746837333     1.343549755798    -0.006823373312
C      4.434591852631     1.833422843727    -1.219736546921
C      3.610074280872     1.703827580639    -2.310100748249
C      2.363041338889     1.075834787937    -2.141472787934
H      2.428176371620     0.338409757234     1.057257272011
H      4.622647402595     1.419861218363     0.867622485546
H      5.408190648256     2.307571470202    -1.308821953232
H      3.883928223721     2.062591461394    -3.281370976189
O      1.614343399486     0.986585810697    -3.253638624935
H      0.740054644850     0.573711995540    -3.007902662610

