# STO-3G

title

0 1
C      3.521341694968    -1.599950957760    -0.184751562673
C      3.797430619280    -2.969551959893    -0.370023459674
C      5.064365024146    -3.484363492915    -0.027713118106
C      6.053233875146    -2.630545963535     0.499883263513
C      5.774332334173    -1.261235523630     0.685187379960
C      4.509428755075    -0.742878444656     0.343423506883
H      2.544322542382    -1.195938248203    -0.446872561416
H      3.035671087005    -3.631748186702    -0.773226972406
H      5.278573995030    -4.542140922815    -0.168446464914
H      7.030451196166    -3.028935680998     0.765609265839
H      6.537204952225    -0.602086925473     1.094374569786
H      4.286138562947     0.312102588621     0.477281578702
C      0.544606774391    -1.977114555044    -2.411522672217
H      0.114481579426    -1.748003758407    -3.384076485955
H      1.592277830052    -2.251969559329    -2.420701296946
C     -0.252237297683    -2.257621678929    -1.293093689396
H      0.183945468821    -2.726716765231    -0.425146100401
C     -1.717819357473    -2.176592121723    -1.307861282792
O     -2.227945137495    -1.282841742701    -2.034696121754
O     -2.410424189408    -2.658732293694    -0.188858427407
C     -3.842140795343    -2.602028802701    -0.273431931929
H     -4.282638063455    -3.030910744493     0.653209112418
H     -4.200693539864    -1.552336359540    -0.371679434085
H     -4.212061704927    -3.201176382627    -1.136794643252
Pd     0.494734144659    -0.085505227894    -1.259688452411
C      1.135648942969    -5.967164203245    -2.484786117314
O      1.403492254536    -4.931413833544    -1.955921322102
O      0.859763673990    -6.999009155246    -3.014308769026
C     -0.439296834118     0.584133980327     0.579748326079
H     -0.258462010669    -0.022952595817     1.470352215548
C     -1.852469221004     0.972445167087     0.293724832978
H     -2.116345370974     1.854250969384     0.912578864653
H     -1.965687110842     1.242763254077    -0.775471900923
H     -2.532792438940     0.134834492223     0.543850972076
N      0.461113945202     1.487554643334     0.096415134344
C      1.617490749022     2.009933989807     0.574304460458
O      2.727129361492     1.998346232669    -0.020098036681
C      1.491813333947     2.730517785388     1.858760665276
H      0.737586242596     3.525135704061     1.725585474782
H      1.177559651167     2.014013703542     2.633847890370
H      2.470866167107     3.173840471352     2.117996434553
N      1.702697446609     0.756975198889    -2.906555942611
C      3.046296371237     1.028585255795    -2.865813606661
C      3.660942170148     1.604930472330    -3.961843904756
C      2.931823131678     1.927896771705    -5.087251043270
C      1.587037001543     1.656792127118    -5.089202882141
C      1.011251271225     1.067748187005    -3.948710037828
H      3.634105642154     0.755785964779    -2.000214125192
H      4.719627093959     1.804980261393    -3.926680910254
H      3.410771934572     2.385072052867    -5.949113332043
H      0.958230504468     1.885784906005    -5.926440924912
O     -0.310526196124     0.850226931592    -4.037463312128
H     -0.651190416152     0.475328634770    -3.176974377779

