# STO-3G

title

0 1
C     -2.700811379877    -0.085152260433     2.171397554421
C     -3.138907396281     1.194274455785     2.570327157902
C     -4.433752180011     1.361624367299     3.102495060464
C     -5.287744337563     0.249654198972     3.241893620805
C     -4.840147118148    -1.031891254259     2.862254259702
C     -3.546619939473    -1.202438383046     2.330811986627
H     -1.705338511493    -0.225235669484     1.750331222682
H     -2.473036737310     2.048975268479     2.490428745943
H     -4.772376088807     2.348214100692     3.413456250184
H     -6.286992448966     0.378458296984     3.653220794493
H     -5.490901395535    -1.894636194984     2.988472629112
H     -3.174216002482    -2.189155426455     2.070798845518
C     -2.137956203653    -0.855768376403    -1.430331646703
H     -1.801324880327    -0.429087703118    -2.372734587645
H     -2.874415885799    -0.286088271623    -0.872780416486
C     -1.810764700900    -2.140264409219    -1.035303399606
H     -2.245498537476    -2.581870986479    -0.155215265422
C     -0.876940957746    -3.011330151029    -1.763716364852
O      0.065486969011    -2.461113908222    -2.398676866932
O     -0.887238025739    -4.393201884722    -1.520288058900
C      0.171142304302    -5.147939794977    -2.125649719588
H      0.048249318286    -6.222088983837    -1.867294648738
H      0.144194234024    -5.051818114862    -3.234687742533
H      1.162313542877    -4.812877588994    -1.744338796196
Pd    -0.118543010966    -0.631803772148    -0.210451182338
C      0.283920312132     4.204880166210     2.744654165524
O     -0.301612236245     3.264388899986     2.295888118275
O      0.859628428843     5.145823014973     3.194767736575
C      1.549412848131    -1.038676019640     1.053696228344
H      1.613176037791    -0.433822631005     1.962383557759
C      2.791814500021    -1.130649408989     0.226999488140
H      3.626138406726    -1.481917737057     0.867348727048
H      2.653247888638    -1.858479329478    -0.600338901422
H      3.042240875535    -0.132370669582    -0.185921907693
N      0.716122100785    -2.123600746799     0.938566482492
C      0.057808513426    -2.911938063437     1.821293211491
O     -1.148116934454    -3.261505801485     1.735009289012
C      0.893617564617    -3.468468124683     2.906124058977
H      1.728830628178    -4.019929636320     2.441845207106
H      1.263223760450    -2.635587361501     3.525470286060
H      0.276730338825    -4.153191053636     3.517056770928
N     -0.098811585518     1.364878306558    -1.031365518616
C     -0.823389939574     2.424082614968    -0.550211073711
C     -0.724500662526     3.656870466963    -1.163785644711
C      0.112165493723     3.840758495824    -2.244134100439
C      0.817799316255     2.759437186288    -2.708010279717
C      0.672045966938     1.521804946556    -2.056809184403
H     -1.492783584717     2.284245316133     0.287491913222
H     -1.286892795466     4.487641292079    -0.766611974427
H      0.205088071470     4.814801737179    -2.717620660879
H      1.479652935167     2.827553203458    -3.548784323210
O      1.385691130961     0.521780805520    -2.583115004244
H      1.181374059289    -0.323220013826    -2.085079200652

