# STO-3G

title

0 1
C      0.538950147013     0.091163533199    -2.708781761780
C      1.477951670814     0.859697462484    -3.427541487674
C      1.928107695637     0.414623036843    -4.686517931804
C      1.444882726903    -0.795185036031    -5.225459735119
C      0.514371586129    -1.566763743348    -4.501189986751
C      0.063110196179    -1.123356662642    -3.241777471602
H      0.188597938771     0.437113227302    -1.735798394303
H      1.842997377055     1.788650193420    -2.998122071931
H      2.654149332005     1.004574043901    -5.241759714288
H      1.795215491766    -1.137487868549    -6.197012842851
H      0.150532580167    -2.506425065892    -4.911812650038
H     -0.639702093449    -1.726048318605    -2.669819767527
C     -2.735457093936     0.087772514470    -0.703881236548
H     -2.257364582125    -0.264285501457    -1.611336814801
H     -3.639081939153     0.673213898154    -0.845593930559
C     -2.433247034485    -0.446155542805     0.550934853461
H     -3.078703211854    -0.239822107371     1.392291027344
C     -1.393987096038    -1.454928387857     0.784093366158
O     -0.277340393559    -1.221296815064     0.250655581490
O     -1.445663465321    -2.146658048268     2.002489799847
C     -0.451189917159    -3.167737563563     2.166146487404
H     -0.606327705027    -3.680667346410     3.140055946066
H     -0.534091732901    -3.932287878604     1.358973291648
H      0.574760414700    -2.734735663575     2.162184816570
Pd    -1.187081844793     1.476420867037     0.081511086627
C     -3.192714612768    -3.960130567247    -1.830522694075
O     -2.721733260912    -2.978502770669    -1.339402749989
O     -3.667427641976    -4.941005280345    -2.313798530848
C      0.292713944125     1.421932423149     1.657310475508
H      1.008752134600     0.596049413625     1.649142660784
C     -0.395350201472     1.713179665904     2.950401952915
H      0.331621162787     2.181422516345     3.644923438289
H     -1.232810162906     2.420946016640     2.789261689463
H     -0.774480108804     0.769902651377     3.393870856509
N      0.418190275497     2.530124508706     0.864559302731
C      1.410392720427     2.949904105146     0.034916947505
O      1.267238763228     3.257894041787    -1.177062007982
C      2.723335557200     3.156332652966     0.682820750879
H      2.580552754131     3.867002312708     1.514713506456
H      3.088025949628     2.184103965597     1.050337744971
H      3.427254880623     3.573841995139    -0.060387061802
N     -1.997072229320     2.906398648580    -1.426047858188
C     -1.415393698327     3.268685900830    -2.613719900164
C     -2.030479310820     4.212837144679    -3.415611198708
C     -3.211182395639     4.808219249801    -3.022404689058
C     -3.756380666681     4.436774577177    -1.819076001083
C     -3.088712661463     3.472722911080    -1.043125843860
H     -0.501652394053     2.795341392062    -2.942575087557
H     -1.572725935941     4.484226868456    -4.353189090474
H     -3.694308395743     5.553801810009    -3.648480274291
H     -4.665123078624     4.865239720199    -1.446005682553
O     -3.676630445915     3.178206613931     0.130074032882
H     -3.080845756328     2.550007054996     0.627529001955

