# STO-3G

title

0 1
C     -2.001400489785    -0.001783367911    -3.543567267905
C     -1.772497359527    -1.325148253553    -3.972828043572
C     -2.038480768731    -1.686954330372    -5.308938569334
C     -2.532375172856    -0.727239113747    -6.215388656073
C     -2.764972350867     0.594106779859    -5.784533475915
C     -2.500631697794     0.955338674111    -4.448406444583
H     -1.799326258689     0.294753582637    -2.519904450928
H     -1.396960120049    -2.067861515126    -3.273436549571
H     -1.864450443984    -2.707946965369    -5.640972476223
H     -2.735717513598    -1.007154260880    -7.246432789775
H     -3.150720761152     1.334652875901    -6.481324419042
H     -2.687246400362     1.969187343753    -4.102376384398
C      0.038746701812    -0.835892600877    -0.770484416292
H      1.012018910012    -1.167648669461    -0.415176469452
H      0.015794695378    -0.480093506680    -1.790182632081
C     -1.138016249814    -1.110466729749    -0.074541480778
H     -2.094076783604    -0.930626723805    -0.547683664187
C     -1.194413460724    -1.825467417787     1.207001637855
O     -0.243127051071    -1.648906111252     2.012314419961
O     -2.453625810572    -2.234825437461     1.669024592215
C     -2.477746667648    -2.845939159906     2.967519688142
H     -3.518639245084    -3.152865985306     3.210906029210
H     -1.836698353100    -3.756839469770     2.990314233478
H     -2.136865657576    -2.132953972340     3.752232217187
Pd    -0.209283800221     0.989344234389     0.473473638880
C      1.839195715238    -0.201292632444    -4.533974876573
O      1.690045206637    -0.118748490199    -3.351614296777
O      2.004977849223    -0.288350785903    -5.710619238256
C     -0.677408272534     1.347867443839     2.573702354721
H     -0.167413791284     0.726549541890     3.313554892606
C     -2.168008390030     1.443666351416     2.652330062812
H     -2.448728035593     1.801038650994     3.663723983323
H     -2.555679520658     2.171609953424     1.909483704426
H     -2.622558186655     0.448637316688     2.479199162641
N     -0.108153865609     2.426064600128     1.953711732274
C      1.095380744812     3.047314327979     2.116111884575
O      1.962395267653     3.193147939518     1.216847590881
C      1.298313512392     3.682536362444     3.435258258190
H      0.472238278398     4.396634106635     3.594189000043
H      1.295531544342     2.896396860134     4.206314923812
H      2.267308736243     4.214921492312     3.429311077435
N      0.362807442175     2.222316872201    -1.302785727104
C      1.640778494011     2.503805360058    -1.708658722349
C      1.850448078475     3.441499023460    -2.704088918242
C      0.785236418422     4.093824344201    -3.289492657233
C     -0.480459382459     3.806559317790    -2.842046623828
C     -0.633550201087     2.847881373678    -1.824501372971
H      2.479031464300     1.978767929283    -1.265559751111
H      2.856212262318     3.641438539979    -3.033790003497
H      0.946061933756     4.821007733189    -4.080643487370
H     -1.350458158945     4.283081920515    -3.244090670558
O     -1.903121184640     2.628143342670    -1.433395456060
H     -1.882267617472     2.017758074526    -0.643700943790

