# STO-3G

title

0 1
C     -0.680774236684     0.187408231923    -3.871499274384
C      0.630637244749    -0.242040315929    -3.583109684541
C      1.618904837464    -0.212124568563    -4.586201182290
C      1.298376801746     0.248538850476    -5.879064220333
C     -0.010869869815     0.681395300523    -6.167978790378
C     -0.998652388326     0.651263407348    -5.163342673898
H     -1.438377271591     0.182208358674    -3.096316707415
H      0.886320537716    -0.586893042659    -2.582783763500
H      2.630834757207    -0.540512474494    -4.360778926468
H      2.062321546755     0.272360364396    -6.652793083034
H     -0.258744365218     1.040349280205    -7.164252092337
H     -2.008025587020     0.995687143408    -5.381814052251
C     -1.915744843408    -0.570171182051    -0.689431924512
H     -1.103691880194    -0.935977479354    -1.307405979115
H     -2.775239837306    -0.186148473577    -1.230300244624
C     -2.023932933320    -0.924854404219     0.657584566946
H     -2.953415815087    -0.757714812099     1.182860046870
C     -1.036471229348    -1.744575165911     1.371606076527
O      0.174677545357    -1.558379328110     1.084146436372
O     -1.396232970881    -2.225479378254     2.638933633837
C     -0.382633991625    -2.963134500523     3.337893620921
H     -0.790315062318    -3.320904711517     4.308723070278
H     -0.063839106278    -3.854636214526     2.750348008561
H      0.504052815096    -2.323877153671     3.550982053220
Pd    -0.978935297453     1.129418063214     0.392090461223
C     -2.836678435443    -2.952383786965    -3.955456541275
O     -2.734869057226    -2.299658972034    -2.961630536206
O     -2.941075204961    -3.610878300488    -4.943575699371
C     -0.114729065072     1.310851350986     2.359752496358
H      0.691387804693     0.612481100431     2.604030786507
C     -1.211111854850     1.456824070444     3.364046214629
H     -0.808345767591     1.968289454455     4.261875107342
H     -2.032980022644     2.074126326352     2.947458298260
H     -1.595819875554     0.457489282412     3.651499990452
N      0.074261087439     2.440700090082     1.615684903784
C      1.186406658358     3.089751293859     1.177541865269
O      1.398705121227     3.465001446864    -0.002477354210
C      2.140847190673     3.475350469291     2.240426818825
H      1.593519820285     4.085123755148     2.979435770817
H      2.542455577837     2.558968060163     2.700292776969
H      2.957798580481     4.067584959815     1.788339435567
N     -1.373077580378     2.403624447026    -1.383346064806
C     -0.421116732098     2.894768284651    -2.240815595205
C     -0.793184121644     3.768400610122    -3.246068606831
C     -2.106917298714     4.163417283497    -3.384078100404
C     -3.030131477300     3.670111497900    -2.496681336014
C     -2.597892275798     2.785851573432    -1.492422480160
H      0.604502043943     2.553456596677    -2.172056753376
H     -0.043512729750     4.125662002921    -3.933043576435
H     -2.402231808703     4.846269642753    -4.176158688739
H     -4.066542226717     3.938428048571    -2.541227219226
O     -3.563774274573     2.360094942454    -0.656884928000
H     -3.138679244185     1.813935444213     0.058827788911

