# STO-3G

title

0 1
C      2.584727168102    -1.279331586090    -1.873056324382
C      2.163060989674    -2.609888465032    -1.675419706670
C      3.068317532654    -3.672492790544    -1.866054013091
C      4.396743242151    -3.406680329165    -2.254795471146
C      4.820064711554    -2.077268020829    -2.451515188616
C      3.913548231600    -1.015780894071    -2.260042167435
H      1.897415127206    -0.456866209377    -1.710829092360
H      1.140728473616    -2.819691930767    -1.368404468655
H      2.742829734315    -4.698456156587    -1.711015526864
H      5.095292062666    -4.227153451473    -2.401720582305
H      5.845133464600    -1.869585153022    -2.749618023426
H      4.239995364049     0.013063258804    -2.402742045375
C     -0.494340910213     0.240757214944    -1.033987625749
H      0.104390050602     1.030115067744    -1.483250977957
H     -0.145323638969    -0.766393672083    -1.221538234948
C     -1.812900212711     0.451611815791    -0.611837596874
H     -2.465245279964    -0.391934100829    -0.448381165756
C     -2.466313557974     1.766291007832    -0.624486549871
O     -1.753125955434     2.757391478624    -0.317244987541
O     -3.855427535585     1.805920393597    -0.438661648537
C     -4.447831375307     3.113412531928    -0.457941148927
H     -5.548426934432     3.021570574987    -0.328207866133
H     -4.055230282931     3.746766150638     0.369874692422
H     -4.258557860008     3.620479443862    -1.431821850507
Pd    -0.345786623565     0.470833934434     1.152497331848
C      0.187028320143    -1.043993316482    -4.912880380720
O     -0.085073866842    -0.585737043971    -3.845255846608
O      0.449991507575    -1.503315418829    -5.981085296124
C     -1.795843896539     0.651257832385     2.750522097412
H     -2.577908234548    -0.112371474926     2.783487608278
C     -2.232892872564     2.074604529487     2.865109836445
H     -2.455548328809     2.298049284493     3.928347363151
H     -1.423166959729     2.751205038979     2.522765915188
H     -3.144828280388     2.241337946196     2.259212806843
N     -0.534664999245     0.450126901229     3.228550148524
C      0.033990687056    -0.536262123964     3.970758080228
O      1.072151459405    -1.176953207241     3.669579884754
C     -0.592730049403    -0.756685560302     5.292247054747
H     -0.004178143606    -1.515854772825     5.838648444809
H     -0.570265691881     0.203489022582     5.835490757039
H     -1.628252852800    -1.104376158952     5.144965788936
N      1.855489572364     0.485972087008     0.951958330060
C      2.682912932300    -0.555325973819     1.288341688261
C      4.053589580621    -0.383104777579     1.241698325799
C      4.596890027979     0.826640075360     0.866061820571
C      3.742058293840     1.850746210997     0.546178966373
C      2.354959983505     1.624978681767     0.616278851645
H      2.268136820112    -1.525393759752     1.532049053051
H      4.695786428551    -1.214841912321     1.480324148380
H      5.673971984887     0.962408966221     0.819501307961
H      4.094024377787     2.817992398941     0.248292319657
O      1.601488700909     2.688583260754     0.290849281579
H      0.637434730668     2.473807916311     0.420483209790

