# STO-3G

title

0 1
C      0.308652032373     1.462855655697    -2.292226826265
C     -0.580582480912     1.285848405420    -3.371665658992
C     -0.774421056309     2.324742732590    -4.304373161562
C     -0.076492195800     3.540683882431    -4.156476633524
C      0.820147869779     3.713055037542    -3.082225259985
C      1.015651259214     2.674159610803    -2.149914664916
H      0.453988499437     0.667433003331    -1.566658493720
H     -1.106649574008     0.340616809941    -3.493263717065
H     -1.455432738650     2.186610525570    -5.141490399215
H     -0.223148194135     4.342641313717    -4.876814643805
H      1.368604170055     4.646123549538    -2.975146121515
H      1.718013058701     2.787633790539    -1.328386734107
C     -2.464705199884     1.904660850076    -0.072809088474
H     -3.358700180951     2.330609028132    -0.534820596046
H     -1.577943236653     2.250410596156    -0.613679348752
C     -2.479421239088     0.390210675005    -0.007366362664
H     -2.457688224449     0.021373217667    -1.031543981205
C     -3.514122226713    -0.282643617310     0.799097074933
O     -4.183559662622    -1.196666192288     0.246595095750
O     -3.402450200140    -0.232587900604     2.199677505063
C     -4.384428461971    -0.977518961342     2.932950360061
H     -4.211784189951    -0.839925727982     4.021889286109
H     -5.411033723176    -0.616587821221     2.696442615508
H     -4.310721391108    -2.064938271817     2.704215636106
Pd    -0.653379432114    -0.166493187731     0.710513781119
C      1.960160548786     1.905186724598     1.705769660453
O      2.256074572235     1.135944534090     0.637971190245
O      2.523759327920     2.995984159266     1.901143755568
C      0.792746578472     1.487983089566     2.678672446551
H      0.857828847241     2.238359969296     3.474939411414
C      0.937186960580     0.128688541539     3.326929304888
H      0.135694904681    -0.000339413577     4.083978612133
H      0.845329140887    -0.687587253327     2.591363609394
H      1.922775040607     0.051230099843     3.831567825139
N     -0.488226736934     1.509939831209     1.936163356413
C     -1.404049384890     2.415235082903     2.076589609642
O     -2.466379360697     2.544113474727     1.265565920063
C     -1.381031346339     3.414217549392     3.163502585620
H     -1.360476654478     2.880304082474     4.127631214038
H     -0.502137753612     4.065330020871     3.020577015175
H     -2.297788805147     4.030862909799     3.107395597577
N     -0.483413947147    -1.876711391960    -0.405605439703
C     -1.287444965196    -2.743224527007    -1.092040866149
C     -0.729230602497    -3.838353034522    -1.721952921251
C      0.629855441844    -4.074514390076    -1.660636934019
C      1.417001144711    -3.201124917109    -0.954234764336
C      0.817575122760    -2.091841427652    -0.321888302282
H     -2.354602359423    -2.567389135275    -1.150820400644
H     -1.367548662157    -4.514882340175    -2.266886481451
H      1.066148728831    -4.936974869396    -2.157719879051
H      2.476611515799    -3.329023184079    -0.861025676373
O      1.570369135251    -1.284322577058     0.357044310963
H      1.937826718388     0.164902765881     0.551232901315

