# STO-3G

title

0 1
C     -0.353983731645     2.012163686960    -1.688507812331
C      0.818275143477     2.108170199057    -2.465350694305
C      0.930110324441     3.116712435139    -3.442573914005
C     -0.124351024830     4.030478874768    -3.641896853052
C     -1.293201946635     3.938966179517    -2.859874320544
C     -1.406968990455     2.930363098517    -1.882599730835
H     -0.438537785797     1.227736029293    -0.938104543387
H      1.631145399083     1.409771310914    -2.289757637116
H      1.836743308918     3.192562582682    -4.038502695617
H     -0.034284544977     4.809207948492    -4.396440586761
H     -2.105779016585     4.646811387036    -3.008608584189
H     -2.303449990627     2.862236998548    -1.270527004659
C     -2.560622277902     1.560700568992     2.571373861290
H     -3.527364506252     2.052039678928     2.705591912722
H     -2.033771955625     1.495229724717     3.529235510927
C     -2.652518862951     0.184289742274     1.943619604455
H     -3.008856647787    -0.503829477638     2.711025986064
C     -3.434933846452     0.046924726382     0.702686693371
O     -4.488077677530    -0.644728367361     0.736462257918
O     -2.766451764076     0.272074998404    -0.509802597884
C     -3.493303032655    -0.045666450751    -1.704259676210
H     -2.867073186759     0.201611164099    -2.589606495499
H     -3.735346220261    -1.131775770100    -1.743466697901
H     -4.431752222750     0.549998278780    -1.766868339814
Pd    -0.778355769775    -0.483584883330     1.500470123092
C      2.403647518772     1.152075822710     0.699816120676
O      2.087082681390     0.170423140203    -0.170256191087
O      3.257154523021     2.014498345823     0.432000482436
C      1.620698724746     1.262473488494     2.060724992931
H      2.019708000379     2.177283029331     2.513807874064
C      1.902894987201     0.133361854694     3.025540049128
H      1.399440093013     0.340389487672     3.993029406753
H      1.529983495095    -0.830059214363     2.636253267507
H      2.995567612501     0.049835052940     3.203138249284
N      0.145281753851     1.342671110416     1.902029976604
C     -0.488667936214     2.451953683364     1.674056955425
O     -1.827476319369     2.554605511165     1.742607471413
C      0.190147875540     3.710588340981     1.306206976847
H      0.774723829343     4.072911142934     2.165911284250
H      0.826148448766     3.529638508683     0.422352137206
H     -0.573626042021     4.465698895018     1.042519029720
N     -1.303069414213    -2.375170224164     0.855834331080
C     -2.370898754597    -3.217241657644     0.717923701834
C     -2.201448220143    -4.438104409633     0.092005349262
C     -0.966053841863    -4.820036607555    -0.394138652858
C      0.094414416178    -3.963758182244    -0.238003026988
C     -0.116954123779    -2.725595420131     0.402220748955
H     -3.341816129528    -2.936441651046     1.105984771694
H     -3.047979410236    -5.096686697620    -0.015284560475
H     -0.836122887785    -5.780336589362    -0.886204206557
H      1.079825609092    -4.196976722162    -0.587066457979
O      0.885034705070    -1.913188974540     0.560287755057
H      1.565380576531    -0.656072129585     0.126210039378

