# STO-3G

title

0 1
C      0.773286520752     2.520468872242    -0.826322301635
C      1.858066735430     3.189789658093    -1.424486868975
C      1.616475836208     4.307627994577    -2.252136791516
C      0.300717126960     4.751948525088    -2.484518194612
C     -0.780115336060     4.074121007826    -1.887436712819
C     -0.549303589674     2.957262025893    -1.057570657855
H     -0.480615893486    -1.193182268781     0.418842277186
H      2.879970414584     2.854469629304    -1.258785125797
H      2.457220602725     4.827485641965    -2.707367089240
H      0.121654395783     5.617085820405    -3.118472230148
H     -1.799482579150     4.411737159676    -2.062030843774
H     -1.390817257607     2.438534844648    -0.602125526975
C      1.081736848287     1.304192262098     2.465067052415
H      0.109309402551     0.991538826467     2.839008926383
H      1.911292250523     0.632368985265     2.667457008205
C      1.323293037043     2.571793751411     1.970990762152
H      2.336695755972     2.871638304327     1.745157129837
C      0.328776586502     3.659342266027     1.967081345624
O      0.718185410326     4.840535832040     1.776571829856
O     -1.034729212838     3.351387407368     2.133298381163
C     -1.937286689227     4.464223895430     2.063771515373
H     -2.979370779854     4.105512166237     2.205403132512
H     -1.713517238647     5.205473967363     2.864543525006
H     -1.871744324019     4.964824485655     1.070555428241
Pd     1.021407095450     0.838437573628     0.234954412300
C      1.007746129774    -1.711744285150     2.389613885897
O      1.019214065751    -1.263307702035     1.100538712417
O      2.048419128017    -1.843215962364     3.061681091288
C     -0.396088704004    -2.021111839131     2.991767377892
H     -0.227362399262    -2.067135611589     4.072324476238
C     -0.908747097539    -3.380335072683     2.546886521921
H     -1.864935957801    -3.602720957208     3.064760573040
H     -1.088458403751    -3.376194060256     1.452233680627
H     -0.170999949793    -4.171083942491     2.796340357970
N     -1.461949745711    -1.031670022211     2.765258774196
C     -1.886207538854    -0.584614717722     1.641017979818
O     -1.417519584227    -0.820649004878     0.369621443773
C     -3.043418139145     0.313237518195     1.697395762685
H     -3.868966824785    -0.239177042491     2.177386519655
H     -2.759380900780     1.184423020656     2.311768739679
H     -3.325544232374     0.626108485602     0.676677616031
N      1.282439053343    -0.188589652890    -1.601491432888
C      0.657769176842     0.160799721354    -2.771479993426
C      1.112636358102    -0.338536863605    -3.975743817974
C      2.181910789020    -1.204960639757    -4.017329892178
C      2.763792127912    -1.575225592084    -2.834478494705
C      2.261673699655    -1.057968227072    -1.622167536123
H     -0.190988466129     0.831987266618    -2.759697966553
H      0.621038627489    -0.044993500463    -4.888591657378
H      2.542450557721    -1.599798815708    -4.963451169917
H      3.576725384554    -2.272294579503    -2.792523270372
O      2.844667851230    -1.527037170554    -0.539324153336
H      2.227593141860    -1.434558375939     0.308663779221

