# STO-3G

title

0 1
C      1.137887296994     3.364931017357     0.381876468798
C      2.558993602543     3.204037239944     0.252933985789
C      3.326969263747     4.136419796358    -0.504812906331
C      2.703071879660     5.217152070793    -1.135279264770
C      1.294517356619     5.358634606727    -1.052634609598
C      0.523875631330     4.447514682799    -0.328126284070
H     -1.947725750148    -0.724101871271     0.905183985097
H      3.069210994250     2.483986976373     0.890598473067
H      4.405452090047     4.013210501884    -0.557371512072
H      3.291034009639     5.942823952817    -1.690701501308
H      0.808095420999     6.193552514213    -1.551387369961
H     -0.548088274347     4.600058415419    -0.241634749407
C      0.429351476454     2.614468671556     1.444060286836
H      1.786904918382     2.699465816548    -2.356683000599
H      1.099796166185     2.118050643017     2.145203011880
C     -0.911139374848     2.543592567258     1.631169880045
H     -1.603189240182     2.948653615340     0.904490323652
C     -1.533273729199     1.948848244019     2.823916032690
O     -2.786212018187     2.017371425647     2.955231622705
O     -0.711444893295     1.537182821949     3.892599996874
C     -1.379006161200     1.224826711330     5.122999573740
H     -0.630348498399     0.887959611224     5.871201907118
H     -1.902733504048     2.120461176821     5.525232462984
H     -2.111820575200     0.401198195147     4.984835672749
Pd     1.731555165895     1.627600256340    -1.274461435486
C      0.313736875613    -0.317118376517     0.424719801624
O     -0.678079212586     0.043558658628    -0.334910830275
O      1.531585641900     0.061674133593     0.270252038659
C     -0.069372092002    -1.215681939844     1.618824708115
H      0.417569698666    -0.845992249915     2.528660681599
C      0.348544470160    -2.656361011423     1.398495301864
H      0.110256889856    -3.253839443619     2.302946427334
H     -0.215888769562    -3.073563360022     0.539441377102
H      1.438573395303    -2.717226767805     1.202587982347
N     -1.523917985342    -1.152770633693     1.728394243020
C     -2.200565377031    -1.508509949021     2.843345808913
O     -1.666486627394    -1.938456752459     3.897482246521
C     -3.672723528697    -1.363194986030     2.795186887304
H     -4.112703779994    -2.347268066347     3.022828421691
H     -3.955977227113    -0.621712036065     3.559687266975
H     -3.999054108301    -1.014978872282     1.799374947566
N      1.487326687189     0.375923038707    -2.898719927608
C      2.593420928165     0.010167236109    -3.618021613105
C      2.448208915767    -0.538062345174    -4.874131851953
C      1.194398586655    -0.744742100385    -5.407891832900
C      0.103637094660    -0.393970631349    -4.657232722370
C      0.287113650377     0.158717041808    -3.372290756315
H      3.583274314769     0.172758334161    -3.207397296886
H      3.323552616532    -0.816887390355    -5.438853998348
H      1.073466974290    -1.183159125763    -6.395250548411
H     -0.899974228083    -0.547541286329    -5.003586297184
O     -0.816728914672     0.424299883845    -2.719543681029
H     -0.732463873855     0.401858391223    -1.641549713388

