# STO-3G

title

0 1
C      0.285085668159     3.393558196619     0.660217016524
C      1.316401139476     3.792864811544    -0.246575492431
C      1.019370394529     4.624778349465    -1.361259930254
C     -0.294670634269     5.069543497154    -1.577319759519
C     -1.304552729736     4.704555320135    -0.659846607591
C     -1.029096229638     3.876091132327     0.440269572566
H     -2.227119081359     1.436424697124    -0.027288821701
H      2.356473101567     3.639048882888     0.042601700848
H      1.824369504127     4.937724766981    -2.020197846775
H     -0.528960239464     5.702039097283    -2.429044694010
H     -2.321517020829     5.060987120535    -0.807121185772
H     -1.844870418326     3.607237753728     1.106602970575
C      0.653286171253     2.459095738467     1.737793410601
H      2.874866672654     2.386558570603    -1.782637343294
H      1.694902468687     2.134923757457     1.711653285449
C     -0.198515309039     1.930476677166     2.650201945635
H     -1.242039737036     2.208865119219     2.660118532930
C      0.184112502331     0.907280352986     3.630048484795
O     -0.718644050132     0.347496083393     4.311088635349
O      1.531918432399     0.510255826008     3.742111793452
C      1.794533217600    -0.566179054761     4.652114453071
H      2.882987821843    -0.788327705707     4.653847670729
H      1.491773444127    -0.291032348343     5.687774445408
H      1.252677422354    -1.487015186517     4.338286216213
Pd     1.528216802485     1.755604775412    -1.407477589381
C     -0.432249830635    -0.176232263095    -0.009240350879
O      0.553450083118    -0.792081696664     0.545867687011
O     -0.346471103357     0.780771069687    -0.869617346240
C     -1.861751239469    -0.552901299282     0.452137922021
H     -1.770999441420    -1.116502315903     1.384549339536
C     -2.597150247977    -1.383816439497    -0.577157657055
H     -3.601965933950    -1.648014033091    -0.190340070070
H     -2.722261859372    -0.785766308163    -1.504101415430
H     -2.031974714536    -2.312031480748    -0.799316519152
N     -2.566605115857     0.720909954657     0.617044393971
C     -3.379808796719     1.162043443588     1.604801907030
O     -3.700330659497     2.374886565240     1.728222592629
C     -3.898690069016     0.171281352155     2.572213842920
H     -3.049298877122    -0.221971609156     3.155064137342
H     -4.598284349146     0.690684900043     3.250180814989
H     -4.422976830971    -0.622849970683     2.016311689426
N      2.297474119154     0.103291104730    -2.353399284933
C      2.424040653486     0.128348184348    -3.716466466717
C      3.251779707220    -0.774009456084    -4.347810048722
C      3.936944379640    -1.723754716886    -3.622066074166
C      3.769563781631    -1.747899193520    -2.262695628954
C      2.908451713995    -0.815421988287    -1.644218807462
H      1.892039634995     0.874813419902    -4.295160891929
H      3.353941052939    -0.742850947065    -5.421047257103
H      4.585800121532    -2.442411243483    -4.116364794594
H      4.256394921517    -2.475802754526    -1.643249374506
O      2.785030564801    -0.951445264235    -0.350706755067
H      1.791845173418    -0.744934296840     0.103420048884

