# STO-3G

title

0 1
C      0.817008706592     3.788140411974    -0.858100145009
C     -0.196402253699     4.544556174475    -1.496149654228
C      0.079010897675     5.286625371803    -2.656279847871
C      1.380494340241     5.297434373893    -3.195834715081
C      2.402997406651     4.567874166557    -2.556933257223
C      2.126620435774     3.824147361110    -1.397179748846
H     -1.689735896476    -1.895142803601     3.396085056871
H     -1.204622039818     4.535927535773    -1.085167750404
H     -0.713839200446     5.856771750305    -3.134438943380
H      1.597983599877     5.876485664685    -4.090144201704
H      3.415404237756     4.588920632020    -2.954386071246
H      2.933855095626     3.283487273494    -0.908573207087
C      0.468082557383     3.009171583734     0.354040596607
H     -0.357333853498     3.406639745008     0.941816372472
H     -1.396802114943     1.354783582394     0.844088059127
C      1.271833808059     1.997745442827     0.924527281865
H      2.179275401004     1.681285643663     0.432115497880
C      1.128840527549     1.487650304924     2.296012732947
O      0.015974267576     1.617014231524     2.871397596065
O      2.090345331071     0.582955567688     2.769483264686
C      1.712707804719    -0.201035296200     3.909890803809
H      2.553530425136    -0.873114261370     4.186959072595
H      1.483183754749     0.449619733808     4.783697211115
H      0.830292298021    -0.839847065981     3.673214525359
Pd    -0.343626148654     1.022709694161    -0.237041225042
C     -1.195568476122    -1.528075385682     0.528420057481
O      0.015272963358    -1.704597257649     0.959796535744
O     -1.511008340852    -0.766525711801    -0.471861757554
C     -2.283525248535    -2.192548680991     1.411024884114
H     -1.956438969920    -3.217503409823     1.618713907860
C     -3.669109602433    -2.231091097589     0.802150511002
H     -4.385359321648    -2.646944797424     1.540426214523
H     -4.000464604763    -1.213156264073     0.515605573651
H     -3.665426837823    -2.872448622671    -0.102617808628
N     -2.305323365067    -1.485928069911     2.703100908682
C     -2.737797077008    -0.204278061160     2.918377846568
O     -3.283567411191     0.541291403126     2.073540234936
C     -2.568920845782     0.278153497495     4.307240627489
H     -1.493136603324     0.268816223564     4.546582075965
H     -2.962908825508     1.307052599343     4.373060444561
H     -3.128492075367    -0.397198537900     4.976936113274
N      1.141653659743     0.477325351308    -1.730864802339
C      1.204299326853     1.145308428961    -2.925035677141
C      2.209210588039     0.857255067533    -3.825921536820
C      3.155004496550    -0.101151416534    -3.537154386371
C      3.062219560812    -0.766929425802    -2.343486944315
C      2.011110189983    -0.456301032253    -1.453017587046
H      0.472034080623     1.910720226548    -3.155113953537
H      2.256262484318     1.400853117823    -4.755091529928
H      3.952968546503    -0.325606698826    -4.239882637600
H      3.761082758431    -1.528312338956    -2.059744270312
O      2.019436614345    -1.159582744716    -0.343402526190
H      1.123988757015    -1.299525564811     0.244441653386

