# STO-3G

title

0 1
C      2.421964209819     2.337409130757     0.960393575738
C      2.787301603229     1.203460801085     1.726940647180
C      4.108705252267     0.729549364680     1.693303830589
C      5.082527601437     1.367632500443     0.899681257550
C      4.727799535224     2.496574732492     0.135687173642
C      3.410142138569     2.978007809066     0.173182766817
H     -1.723994129430    -2.113210723815     1.557643158438
H      2.057957999028     0.693564010351     2.349304487460
H      4.379042972487    -0.140500881173     2.287048510679
H      6.102041304823     0.989681326424     0.875344816280
H      5.470502404682     2.993401720162    -0.483707316035
H      3.135332671555     3.846088857014    -0.424524095292
C      1.064976263694     2.927715588207     0.984153385616
H      1.023596722714     3.953208282043     0.625711384612
H     -0.183626777624     3.466125641305    -1.142688749506
C     -0.064011532601     2.371236701959     1.589054363214
H      0.004871251246     1.415734951572     2.081443925624
C     -1.325337317643     3.092420253997     1.782523913921
O     -1.690594843752     3.867843619487     0.855249503245
O     -2.255192019512     2.585138438300     2.704213823048
C     -3.528299300136     3.244712376290     2.743618138457
H     -4.163287450611     2.769923031557     3.522959367140
H     -3.409828506755     4.321359724474     3.002434244631
H     -4.054862817540     3.150732122134     1.766954793876
Pd    -0.327732213566     2.010093218724    -0.663151683115
C      0.323780030476    -0.872593149792    -0.067595638520
O      1.335803692503    -0.774787073484    -0.861816576250
O     -0.644773129624    -0.025580631280     0.007510346430
C      0.293191633696    -2.067507818916     0.917248047685
H      1.252000192764    -2.059716030672     1.445802187416
C      0.130528233905    -3.400171718296     0.219161325596
H      0.146315827067    -4.214318917213     0.972945808464
H     -0.840912778850    -3.424629329048    -0.314421285262
H      0.957639105736    -3.557427396092    -0.503856837303
N     -0.786732936098    -1.917436007282     1.886783263568
C     -0.623036790482    -1.097514449847     2.956662065949
O      0.442442935874    -0.484502276223     3.218685912572
C     -1.778601799744    -0.929347965292     3.864003281644
H     -1.447606679151    -1.219526113132     4.874805921808
H     -2.060104150442     0.136300082107     3.843561579170
H     -2.624586391031    -1.561867798984     3.544046709673
N     -0.770461597351     1.615382938657    -2.636424681816
C     -1.894280250820     2.161213906363    -3.195602226809
C     -2.062933339475     2.141871788604    -4.562927482303
C     -1.116437607202     1.559514152708    -5.376812692902
C     -0.010288350088     1.002756471961    -4.791803510920
C      0.133764036116     1.033382269132    -3.386832397694
H     -2.642728565749     2.623569157471    -2.562113528065
H     -2.947705821156     2.579535923635    -4.996619898544
H     -1.246323250883     1.537454937164    -6.455782250172
H      0.757150325262     0.524110515169    -5.368118284593
O      1.216153387774     0.456125985377    -2.943319340228
H      1.285729299026     0.011359139287    -1.928694786594

