# STO-3G

title

0 1
C      0.403608131460     3.271655737591     1.073801816836
C     -0.804739182539     3.917885781115     1.448070658084
C     -0.919251699445     5.317775909204     1.404183893430
C      0.163056189835     6.104062569993     0.966659585039
C      1.357236437238     5.473245134575     0.565964379666
C      1.476548170750     4.073859384128     0.615005152855
H     -4.342203529369    -0.680655174906     0.149182808067
H     -1.638898509937     3.309641429829     1.790116880850
H     -1.850316016774     5.791427769266     1.706928664667
H      0.075235495779     7.187341279216     0.925303183596
H      2.192186105444     6.069222258929     0.204116880937
H      2.391749946784     3.617370922305     0.250115828748
C      0.409298873304     1.795758369086     1.245076007247
H     -0.597501257972     1.382495955800     1.258537264277
H      2.312434082271     1.605384314815    -0.759446955492
C      1.390124869151     0.920262177878     1.748425820934
H      1.036590033559    -0.041524848671     2.094067956497
C      2.741061178624     1.281819413451     2.195118029845
O      3.526359142139     1.754332508170     1.329829216780
O      3.254371699800     0.598136058499     3.308906322088
C      4.615253839078     0.893547195709     3.654094923985
H      4.895629524463     0.319841355452     4.564047398704
H      5.307591592203     0.597846345281     2.833492133073
H      4.741377175302     1.977653724594     3.875931537452
Pd     1.281666367601     0.520545779941    -0.446021531258
C     -1.398361526019    -0.763891181414    -0.155119992219
O     -1.732845416946     0.000032034513    -1.089896312126
O     -0.130749261586    -1.103996004752     0.128381908534
C     -2.440549696690    -1.339179053779     0.840898305265
H     -1.979381955775    -1.322158451282     1.832602350264
C     -2.842610321342    -2.760054596074     0.508702188350
H     -3.574107838194    -3.120692869446     1.261284181599
H     -3.319048482652    -2.785467921454    -0.493034182760
H     -1.953695565449    -3.423773501395     0.515536479558
N     -3.637827168705    -0.504524431710     0.853301101683
C     -3.574149972034     0.717165257633     1.440720914501
O     -2.561539903060     1.149521381158     2.048899596445
C     -4.772889506740     1.577750468252     1.356338106658
H     -5.067800818186     1.836090561666     2.386618545463
H     -4.484131954348     2.483365390182     0.797970863950
H     -5.596943588996     1.052722688403     0.842692850634
N      1.653152056320    -0.286835364848    -2.341148586367
C      2.117550160718     0.500783820846    -3.361721805377
C      2.514682888848    -0.070992856177    -4.551644327888
C      2.430602405633    -1.433360234738    -4.736822359346
C      1.941483793894    -2.197825447625    -3.711170005047
C      1.539989748790    -1.577525763302    -2.509787842521
H      2.186369217226     1.574444816463    -3.230391781505
H      2.883571170334     0.556820576386    -5.346993465906
H      2.735760312873    -1.888782108824    -5.675463786343
H      1.831518662103    -3.260942968901    -3.797430146159
O      1.052315221047    -2.404525586104    -1.610168983328
H      0.566504854776    -1.935996980672    -0.802150639188

