# STO-3G

title

0 1
C     -0.219076732471     3.556873349736     0.133668053381
C      0.367003188530     4.654116198464     0.809861574206
C      0.428636028318     5.921193969002     0.203122134904
C     -0.099354051156     6.125404704132    -1.085895493954
C     -0.704094359347     5.048366546820    -1.763491424369
C     -0.768403465926     3.785502300163    -1.155320755339
H     -3.617909265946    -0.801795692872    -0.358732418905
H      0.762562857709     4.545932459441     1.815089850965
H      0.883720264441     6.749899061463     0.740611348754
H     -0.048414447067     7.107690411216    -1.549361627062
H     -1.124496312481     5.195571742898    -2.755420635003
H     -1.236573668078     2.956344621595    -1.682988105196
C     -0.374748162967     2.190288713335     0.689790411279
H     -1.252754588851     1.678018364967     0.296943436780
H      2.294909464962     1.652030325212    -0.111362627028
C      0.230995573334     1.500287686084     1.750598374804
H     -0.292760591265     0.627852021326     2.114606351771
C      1.323979988910     1.961688339303     2.619864682055
O      2.300511276541     2.556942457192     2.089934371493
O      1.461697417347     1.355546009374     3.878760643367
C      2.608829724589     1.746332627495     4.646365683970
H      2.591387393828     1.218753390671     5.624697850376
H      3.551140493481     1.469023455747     4.121809611320
H      2.599619656131     2.842315189113     4.842822366387
Pd     1.072256369200     0.739396577224    -0.256328015847
C     -0.812186695790    -1.546841918997     0.291535595704
O      0.193486529785    -2.205115554421     0.760991062026
O     -0.722552773720    -0.503052706808    -0.461204261784
C     -2.225441776715    -2.012517303335     0.717209288706
H     -2.157085330376    -2.276905081729     1.777256335261
C     -2.699091467391    -3.220670176549    -0.061190669560
H     -3.698976051002    -3.527901170664     0.309381518570
H     -2.780104688422    -2.961932877944    -1.136528567911
H     -1.988326096796    -4.063051554115     0.067861823445
N     -3.201184031877    -0.940642699865     0.553147377512
C     -3.226578591797     0.080540201468     1.449906206388
O     -2.484666528793     0.155934846412     2.458556010849
C     -4.203797103444     1.153937840403     1.175847624916
H     -5.207881382779     0.698565974133     1.157742190569
H     -4.129701629952     1.908080832887     1.978895174413
H     -3.957540655404     1.606005318216     0.199866282231
N      2.246698230173    -0.276395603580    -1.614561581208
C      2.673416127285     0.373452986834    -2.741405484812
C      3.653340692763    -0.186602630804    -3.531287656595
C      4.201984015655    -1.407244034800    -3.206389793270
C      3.747774681026    -2.045370707821    -2.082865968241
C      2.740176457568    -1.448580728616    -1.292851764069
H      2.247991283323     1.335501359904    -3.003909339849
H      3.987945329613     0.334631571925    -4.413908343695
H      4.973274749216    -1.854949599952    -3.827855756761
H      4.128535005167    -3.001256301131    -1.780624537626
O      2.381786503146    -2.154306163713    -0.258524132403
H      1.394405343890    -2.062180222968     0.248091905925

