# STO-3G

title

0 1
C      2.001420993601     2.119310158273     1.218303895677
C      2.138955347417     1.319562407995     2.377441343596
C      3.346861406743     0.646806669952     2.633432060275
C      4.427521340668     0.754816696977     1.736803277846
C      4.298793718799     1.552847171183     0.582409551339
C      3.100080284654     2.239022073788     0.333671993874
H     -1.104991311057    -0.549318197197     1.763329668839
H      1.325985156927     1.246472248810     3.094307377789
H      3.450291868104     0.058109389822     3.541797763792
H      5.359920236686     0.232654858464     1.937691448140
H      5.126427613599     1.639056945852    -0.117029010987
H      3.002744349711     2.851172729551    -0.561190873555
C      0.770959227227     2.905683054299     0.956680960464
H      0.948446878850     3.889607204442     0.528925066243
H     -0.217265598160     3.546757572289    -1.333982250075
C     -0.504658320011     2.575280383081     1.419291285541
H     -0.653125967251     1.660508111030     1.972812402646
C     -1.650950789639     3.491071106733     1.401213452926
O     -1.742239314946     4.286364372476     0.424572081291
O     -2.774257860201     3.184373173100     2.183288055559
C     -3.900856793945     4.060896707728     2.045064946283
H     -4.709558099571     3.725076130316     2.730261685912
H     -3.626932054127     5.104865219103     2.318624871118
H     -4.298170762824     4.037016515610     1.005466692342
Pd    -0.425553283932     2.100471214328    -0.849656234575
C      0.211751328457    -0.825494933717    -0.235444561612
O      1.189996913453    -0.830447727299    -1.067782678556
O     -0.720213771912     0.069309940569    -0.176472252662
C      0.150565119692    -1.921623185539     0.858073511829
H      1.169549002844    -2.281653969466     1.021636996064
C     -0.736151925326    -3.081866275488     0.464300477740
H     -0.730166656205    -3.841091886404     1.272594202240
H     -1.776014418260    -2.717177724584     0.329837727941
H     -0.373334941729    -3.542208802935    -0.477700428136
N     -0.430341973914    -1.266597748178     2.033593063117
C      0.013934552031    -1.175946773280     3.309500553521
O     -0.380506607705    -0.283113637231     4.104243447182
C      0.989005855521    -2.187767778118     3.770779908779
H      1.929278818942    -2.043615923657     3.216013609763
H      1.161541527701    -2.027821809024     4.849590010111
H      0.558365367959    -3.188341973888     3.596883192900
N     -0.740703015159     1.715259449411    -2.848872502148
C     -1.823974277661     2.292639131185    -3.455385054436
C     -1.916536751243     2.309793058585    -4.829933280881
C     -0.935062526532     1.732807589288    -5.605018469388
C      0.128048058804     1.143128555976    -4.974118363974
C      0.193104418909     1.135672775121    -3.563093631756
H     -2.599122712885     2.752380154643    -2.852738252218
H     -2.769177705404     2.772916489172    -5.300257371163
H     -1.005065414468     1.739896236675    -6.689738264100
H      0.918172487269     0.665479552483    -5.519655550590
O      1.238613449339     0.527422709361    -3.073696081233
H      1.220506457425     0.010800478825    -2.096883554564

