# STO-3G

title

0 1
C      2.464602724002     2.506522761675     0.933989305383
C      2.885294580182     1.286173762280     1.520121638048
C      4.242020825785     0.924463218833     1.491088819767
C      5.198905397017     1.762105313601     0.882970306214
C      4.790045351147     2.978524165538     0.302325774719
C      3.435069487596     3.345698829393     0.333089323320
H     -1.889537502606    -2.300420050774     2.116807677092
H      2.169484309237     0.628442274352     2.002568718168
H      4.554841859233    -0.012073975494     1.947004738739
H      6.247050706026     1.472062464326     0.864340523680
H      5.520448134110     3.632698327616    -0.167823745958
H      3.119986752669     4.284699662877    -0.120090176129
C      1.058615402470     2.972138879247     0.957988336591
H      0.928858100075     4.026769211204     0.727239466467
H     -0.372722609660     3.566975385654    -1.062217174966
C     -0.026780436850     2.245676992038     1.463580708871
H      0.135941028108     1.260400879813     1.866274322565
C     -1.349220243466     2.816976378742     1.738819664806
O     -1.782662996989     3.703552001659     0.950822475918
O     -2.198044356566     2.169307110286     2.651042655692
C     -3.554330049379     2.632203667925     2.690344634043
H     -4.118003902264     2.048528887637     3.449812873680
H     -3.599433241164     3.708259976685     2.972502558171
H     -4.050323261492     2.480451699645     1.704811056688
Pd    -0.077790739048     2.076917639763    -0.814044142856
C     -0.582932479999    -0.667100262419     0.123041896341
O     -1.751085556253    -0.206715290124     0.190030168878
O      0.427436596536    -0.038326033956    -0.475135995209
C     -0.196973036969    -1.968752405016     0.875838965856
H      0.876737026006    -1.936778904657     1.075364229822
C     -0.529078863098    -3.221732471704     0.096043172328
H     -0.234584809297    -4.112113932689     0.689185745184
H     -1.621797457076    -3.262618759637    -0.092045772008
H      0.016744620463    -3.227749304416    -0.869702454899
N     -0.922297230076    -2.003297067900     2.146908235680
C     -0.509144653035    -1.187677047433     3.152098172411
O      0.520405403468    -0.468130974211     3.091517359993
C     -1.332796222985    -1.147473443246     4.378230689411
H     -0.675227400682    -1.396443356144     5.227210923890
H     -1.717605927671    -0.118215779399     4.474659283913
H     -2.165733266152    -1.868789247684     4.313398865845
N     -0.438608974538     1.728110017689    -2.843685106179
C     -1.266329046838     2.563966297431    -3.546886109287
C     -1.380066796630     2.436824409824    -4.914713069840
C     -0.678830166176     1.461235199214    -5.588212703126
C      0.122660321427     0.621723826218    -4.861853908043
C      0.209697103701     0.776829888622    -3.462484543171
H     -1.824996850945     3.335530168027    -3.029910781399
H     -2.029105847875     3.103583529516    -5.459752780647
H     -0.766406412578     1.354400063971    -6.666435848320
H      0.682772328583    -0.168691264994    -5.321979859158
O      0.981018974468    -0.109751471097    -2.869629429536
H      0.879008631162    -0.150126550225    -1.828772856663

