# STO-3G

title

0 1
C      2.512404799923     2.071927429855     0.985783602266
C      2.724824232664     0.894254443828     1.744819756087
C      3.973999156650     0.254746700535     1.709630373956
C      5.024167020664     0.768501111563     0.923220338470
C      4.822929874846     1.942007916906     0.170298674884
C      3.579073022110     2.589427049346     0.209245623922
H     -1.918686801067    -1.848997733214     1.342824370991
H      1.934260642236     0.481468132911     2.365129585843
H      4.128978964950    -0.646511522745     2.297877871556
H      5.986458234504     0.262374099666     0.897884389275
H      5.627424134832     2.345807176722    -0.439460374766
H      3.424761269517     3.495973512359    -0.375093852036
C      1.245912983490     2.829938301522     1.012682086476
H      1.336158000087     3.857115199300     0.664496487277
H     -0.129829839555     3.605480479540    -0.993916349868
C      0.043407369371     2.422621514114     1.604289473473
H     -0.021439467501     1.453608919286     2.068664421916
C     -1.085572553305     3.323006924272     1.865423235354
O     -1.295806390174     4.247039749542     1.031584712098
O     -2.104134141816     2.889208745273     2.728529979996
C     -3.235401487300     3.761878047617     2.857413457102
H     -3.956411413228     3.323515615890     3.581356515088
H     -2.924846355428     4.760315149963     3.240926791741
H     -3.758217477231     3.882905153184     1.881661942046
Pd    -0.219780656209     2.064359812552    -0.639371828786
C      0.307917248468    -0.872567481083    -0.171946793590
O      1.198501728054    -0.925797785943    -1.056649776009
O     -0.563131063063     0.112496216410    -0.002037332602
C      0.135178024550    -2.012849948412     0.884398242917
H      1.049028965940    -2.017619741576     1.488387371407
C     -0.041664335275    -3.376655374767     0.253712438657
H     -0.119628208211    -4.144132713917     1.051200505250
H     -0.971552738942    -3.388410277343    -0.348720486312
H      0.826630625286    -3.612443163039    -0.395942260103
N     -1.002541266319    -1.765159071169     1.766348377940
C     -0.865165129309    -0.982809489620     2.865239906512
O      0.222556117654    -0.477771214808     3.247502262779
C     -2.082740238660    -0.719493600341     3.663532219374
H     -1.879339540919    -1.058184443687     4.692810047979
H     -2.259153102941     0.368272064315     3.646179777146
H     -2.950027351145    -1.262053042303     3.249420151904
N     -0.653549976955     1.614791426329    -2.637064803058
C     -1.219177594285     0.411851812708    -2.979951365006
C     -1.392965087259     0.088363336513    -4.311057327589
C     -0.983081347230     0.950975621308    -5.303248540810
C     -0.418324152323     2.143343495207    -4.932532608075
C     -0.266328856136     2.437611994535    -3.564987637915
H     -1.565344355223    -0.273889816340    -2.218537161700
H     -1.838844685813    -0.858426954541    -4.570292395386
H     -1.105343229424     0.692663700190    -6.351979150238
H     -0.070488795596     2.854768050472    -5.655455924869
O      0.310443381457     3.607957348871    -3.321058625043
H      0.315946998783     3.764991042966    -2.320623308746

