# STO-3G

title

0 1
C      0.337049885986     3.868017406668     0.367762373744
C      1.033201413424     4.709784226970    -0.534708873117
C      0.391439902489     5.804674044630    -1.135324762394
C     -0.955475641128     6.083381409751    -0.830388302197
C     -1.652695038519     5.257371345981     0.075256735800
C     -1.017261332978     4.155876310872     0.670975574327
H     -3.467963978248    -0.382765240167    -0.703975088312
H      2.071600806091     4.486289995193    -0.773386025314
H      0.936587595108     6.437478199556    -1.831293637597
H     -1.452806871413     6.936537719706    -1.286008468543
H     -2.687728224037     5.480298058609     0.323697645264
H     -1.566474463457     3.531337302033     1.370750176904
C      1.077104329098     2.751866862176     0.990496376668
H      3.850145019084    -0.868871830536     0.683601462493
H      2.163469829042     2.848074301807     0.958980169881
C      0.510576425372     1.707979471056     1.722411761413
H     -0.561931328603     1.625896722049     1.816578279609
C      1.268351325851     0.760029563152     2.548396460405
O      2.453904951357     0.469390870884     2.210073663312
O      0.577232385646    -0.010051358012     3.497841290595
C      1.293665484370    -1.109532420022     4.073564964184
H      0.638554087046    -1.622756267863     4.810498657242
H      1.569894772679    -1.850345220239     3.289441592204
H      2.204900979480    -0.755839879966     4.605705620171
Pd     1.144179695342     0.905470681101    -0.391606629062
C     -0.834043137971    -1.035292181636     0.443938756842
O      0.083010502698    -1.799662413869     0.822851966044
O     -0.674320481680     0.075220091055    -0.280253612457
C     -2.323979763876    -1.247449725243     0.854055288982
H     -2.345817783916    -1.135273930802     1.944720981617
C     -2.843927476336    -2.621337706847     0.491787304540
H     -3.889097769773    -2.725094840810     0.849658148319
H     -2.828299091142    -2.742695557313    -0.609891327808
H     -2.216698206386    -3.405696269157     0.963119743826
N     -3.207866870928    -0.246754368315     0.265082219411
C     -3.256908493165     1.008472335028     0.781412858712
O     -2.632682119795     1.380437219786     1.807487696913
C     -4.111283873334     1.990301195436     0.077486692158
H     -4.684971611984     1.498695744569    -0.725828079814
H     -4.795552881014     2.425644350669     0.823340974664
H     -3.449391057999     2.766773733327    -0.342388608679
N      2.066218614013    -0.204840808497    -1.865709639073
C      2.061794163271    -1.429354589779    -2.463197728164
C      3.263086916204    -1.967846718593    -2.896289723285
C      4.450665021406    -1.269327113402    -2.758079092109
C      4.430992585836    -0.053147878925    -2.114529714856
C      3.190160940139     0.453981948956    -1.683795385543
H      1.129864953187    -1.966688191358    -2.598419902848
H      3.257904573729    -2.928344774861    -3.387018680162
H      5.382184054831    -1.681878757075    -3.137710274680
H      5.307968602347     0.551668326816    -1.989346647205
O      3.114022279096     1.563873505562    -0.982976462912
H      3.994734317247    -0.150130407575     0.566620336442

