# STO-3G

title

0 1
C     -2.561454613374    -1.306483332930     2.445320272769
C     -1.904377144470    -0.578622050438     3.463049542318
C     -2.663313247141     0.105116928500     4.437750262632
C     -4.071306864452     0.053401936208     4.402198595111
C     -4.724092108568    -0.684223115325     3.393202167384
C     -3.970223754820    -1.362987140244     2.414770597414
H     -1.968287396259    -1.834702064168     1.703082830268
H     -0.818092843736    -0.567688618600     3.495402628704
H     -2.154912928617     0.667421708586     5.216270245613
H     -4.654543462445     0.577217972512     5.155833522862
H     -5.810374957637    -0.733315358497     3.371967139011
H     -4.476071056573    -1.944446856552     1.646726362920
C     -1.864808141185     0.755501917423    -1.683001035827
H     -1.369895733967     0.535339218480    -2.622864179709
H     -1.815297112482     1.772506625402    -1.307584439637
C     -2.727144709654    -0.161124342509    -1.082179742834
H     -3.284339740325     0.125851109828    -0.200344516962
C     -3.113670575168    -1.455765889897    -1.675054489851
O     -2.865258674971    -1.694096300410    -2.887554952890
O     -3.898182566419    -2.331400931473    -0.904973595674
C     -4.248889844894    -3.572743554037    -1.532470620714
H     -4.855328616190    -4.183663804383    -0.829459062221
H     -4.854702200394    -3.395510083135    -2.450300980822
H     -3.336005937014    -4.152581053153    -1.798837293500
Pd    -0.660001947818    -0.282958868538    -0.093769377164
C      1.974860949673    -0.841520959183     1.221174444950
O      0.629004706305    -0.824150635786     1.345407089112
O      2.719899647794    -0.594443394782     2.194488050575
C      2.576952595405    -1.228829570045    -0.169033128496
H      3.620361906288    -1.470707663047     0.057567600390
C      2.576028930321    -0.062565392738    -1.146946584109
H      3.128812134230    -0.356416534552    -2.063666112948
H      1.540409469039     0.200077276959    -1.430315163827
H      3.077383291507     0.816788685988    -0.692506111298
N      1.994619948874    -2.402116653219    -0.817454963179
C      0.805880296310    -2.581486591173    -1.256065588893
O     -0.293971768371    -1.772399453077    -1.304906604031
C      0.568058903225    -3.892706379541    -1.879195233326
H      1.285539769916    -4.002486007990    -2.710076016670
H      0.755374105964    -4.663054969787    -1.112449864720
H     -0.469422167116    -3.954823195185    -2.254857466549
N      0.405082214965     2.094400312920     2.771480192498
C      1.601382943821     2.679590862894     3.088797600609
C      2.374992363090     3.246538298117     2.087380513885
C      1.955042159584     3.208091265024     0.772745732317
C      0.762442094370     2.587127075529     0.487852810404
C      0.030773800324     2.040485365686     1.563692496619
H      1.931539907444     2.709834393637     4.120549703371
H      3.314164780375     3.708213107334     2.344413452890
H      2.557145203777     3.651821305896    -0.015724151742
H      0.376597393497     2.533950455706    -0.505693767561
O     -1.140302714219     1.383056223980     1.200532459288
H     -1.568515381189     1.002865745202     2.013067294083

