# STO-3G

title

0 1
C     -0.462957499057     0.786664262260     2.428311077838
C      0.012702547637    -0.477616063470     2.842005784513
C     -0.297010014435    -0.945387765128     4.136528672099
C     -1.066909513795    -0.154158136871     5.010882810512
C     -1.531286499872     1.112242067713     4.597785374135
C     -1.229447346173     1.583098887540     3.305805458916
H     -0.217859704156     1.155595269392     1.435429029151
H      0.627322469015    -1.076358029114     2.173392071575
H      0.065048149325    -1.918914074901     4.454982931021
H     -1.300929757626    -0.517634464734     6.008674047332
H     -2.117197055911     1.726136361000     5.277748880275
H     -1.568903612635     2.568149077577     2.990641493280
C     -3.139489224413     1.239031419331    -1.415822619247
H     -3.065589336307     1.552104812984    -2.451247960383
H     -3.800621400727     0.410754608110    -1.178321102328
C     -2.576920288409     1.992596456443    -0.384850361770
H     -2.752248275091     1.703290599432     0.642441353393
C     -1.916884355343     3.297719794841    -0.566046874142
O     -2.101922541129     3.962659927095    -1.619724397772
O     -1.158413369786     3.807536148361     0.501652324003
C     -0.493392852386     5.054314393600     0.254461475316
H      0.081142259203     5.352820217150     1.157909973639
H      0.220010852914     4.960101016867    -0.596265668231
H     -1.230183932822     5.859028470141     0.029674712340
Pd    -1.136320186843     0.325336153830    -0.931948493575
C      1.703534223286    -0.671304883774    -0.466554476703
O      0.398491526527    -0.931350910595    -0.663624589415
O      2.397746921849    -1.406109235314     0.274016433692
C      2.371632016086     0.555066633598    -1.170649858130
H      3.427585456974     0.269567901396    -1.218557139780
C      2.278431372748     1.816056656105    -0.322161862622
H      2.898869437484     2.612558648653    -0.783093420620
H      1.232258346280     2.172588671712    -0.272096167365
H      2.653011086857     1.618610909531     0.704221489124
N      1.950185527086     0.863421730195    -2.535090055073
C      0.801690867896     1.257580766517    -2.937308454156
O     -0.340726733497     1.548071702457    -2.237402503716
C      0.697178962104     1.527303915404    -4.378474771152
H      1.451699641598     2.292615684433    -4.628858544232
H      0.920884102501     0.587585057779    -4.910621242320
H     -0.316920906702     1.890601673016    -4.623239255352
N     -2.084211061795    -3.164594443709     1.046506707474
C     -2.190014380070    -4.488238567866     0.714249248094
C     -2.512262201319    -4.847114832752    -0.584912188379
C     -2.715731112973    -3.877183967968    -1.547462533093
C     -2.604535187708    -2.558565886182    -1.177537564424
C     -2.273480167473    -2.275312403261     0.164427635455
H     -2.023701433862    -5.249263208062     1.467714389934
H     -2.588527690041    -5.890565650199    -0.842770609215
H     -2.956638058577    -4.151909206060    -2.570983724752
H     -2.739728948564    -1.764981056144    -1.877411371963
O     -2.158011684224    -0.931700738774     0.472085264161
H     -1.783207265840    -0.817829899646     1.382767218259

