# STO-3G

title

0 1
C     -0.474359482789     1.006518407481     2.227986222502
C      0.067834871890    -0.249043452672     2.580371508146
C     -0.014740365522    -0.696903792889     3.915775186981
C     -0.628306156643     0.109508834583     4.893870768570
C     -1.162204551574     1.366383253053     4.540946130091
C     -1.086686895588     1.815018608063     3.208005419132
H     -0.401162628824     1.353580672639     1.199723190057
H      0.557840196753    -0.855957478099     1.821953337156
H      0.396146357121    -1.666062330779     4.184785912127
H     -0.689314870599    -0.235691874194     5.923130603899
H     -1.629779312418     1.990873223099     5.298542190083
H     -1.487158099333     2.789734879697     2.936558867455
C     -3.341010478838     0.862102338223    -1.474382285946
H     -3.292739290670     1.140204499979    -2.521401899682
H     -3.925688161585    -0.012854026368    -1.205879904248
C     -2.859209894583     1.709898756869    -0.473089470251
H     -3.013152392601     1.444376740412     0.564105740366
C     -2.357377695724     3.077352002151    -0.698011997742
O     -2.526897622641     3.644331936166    -1.809651171936
O     -1.738927175989     3.740492155940     0.375257705219
C     -1.244301695289     5.057996183240     0.096538071912
H     -0.774265856142     5.477825603002     1.012164755673
H     -0.473734215974     5.030176303724    -0.707013124587
H     -2.073141792743     5.736026711757    -0.210523511689
Pd    -1.277503972293     0.160853997456    -0.987963632060
C      1.523837959211    -0.990115214253    -1.480021016910
O      0.355826268539    -0.956366007366    -0.786205303203
O      1.990860693489    -2.062778651119    -1.911324799310
C      2.344439712286     0.336005904305    -1.601938235683
H      3.230098939561     0.049519948997    -2.183707076274
C      2.826716258758     0.810570073740    -0.244666380698
H      3.545622004685     1.646180737604    -0.377053157495
H      1.965789944041     1.175557176811     0.347518250612
H      3.331294479906    -0.014834558132     0.299473002890
N      1.784279137002     1.501240460081    -2.267940368235
C      0.609399504398     1.875124506457    -2.587222666177
O     -0.636692034529     1.335927057553    -2.415809395693
C      0.561493464121     3.149997504443    -3.323232789217
H      1.022820722006     3.924457183929    -2.688935403807
H      1.147101007488     3.020366254827    -4.248807285315
H     -0.484380929929     3.417138978867    -3.563756923432
N     -1.890350271092    -3.279365791460     1.226037534467
C     -1.891458149049    -4.625781096215     0.977724933637
C     -2.168009824311    -5.089854535129    -0.297993848644
C     -2.429808264712    -4.201089111958    -1.323001425554
C     -2.431721675207    -2.857854351859    -1.035201559452
C     -2.140229806580    -2.465710539527     0.287380920063
H     -1.675749984812    -5.322909806814     1.778960398229
H     -2.156916249468    -6.149843147808    -0.491154112795
H     -2.628067509796    -4.556693905319    -2.330688504001
H     -2.608815401036    -2.122698695176    -1.788502490176
O     -2.134659061330    -1.100426088531     0.509836465360
H     -1.775637583243    -0.897789969526     1.409710671080

