# STO-3G

title

0 1
C     -0.775369790389     0.756818078430     2.650561817155
C      0.643072559280     0.806515663733     2.789617936376
C      1.368045331688    -0.372480208037     3.093258244747
C      0.691420250008    -1.586826544656     3.253068785718
C     -0.717460933011    -1.646898416263     3.118664483298
C     -1.443686520824    -0.490525702081     2.829106730838
H     -1.368910276727     1.662637901430     2.589188802430
H      1.166095476319     1.757891312326     2.756077060754
H      2.449121990900    -0.328626327907     3.193783499168
H      1.249339513203    -2.495203081192     3.464229062073
H     -1.228080453327    -2.600268884011     3.220684607873
H     -2.524009562929    -0.535732549129     2.720603549152
C     -1.741528310143     3.472564294310     0.460783105019
H     -1.927380993266     4.294823443090    -0.234057801801
H     -2.123825343025     3.716297332056     1.449246567615
C     -0.300162716968     2.956821032134     0.495087889273
H      0.093938387698     3.095640787905     1.499206511956
C      0.691132157948     3.480288274724    -0.470388815100
O      0.327727749366     3.975228122147    -1.569616468486
O      2.049220418112     3.424641130700    -0.109598117923
C      2.959801658478     4.088150012006    -0.998648435880
H      3.998232277654     3.971940071867    -0.619825013304
H      2.910652035075     3.651246407724    -2.021460212931
H      2.731177065285     5.176838486805    -1.056410114556
Pd    -0.197700982035     0.836723057663     0.378854345236
C      0.837267558030    -1.540478896515    -0.900416073832
O      0.114392231563    -1.233157106322     0.170064339789
O      1.295539914967    -2.669486277606    -1.192917147454
C      1.130876068400    -0.317388582577    -1.860233673669
H      1.198237280495    -0.728727002334    -2.875629871775
C      2.440891614738     0.355629397748    -1.523176818526
H      2.613402999687     1.198699241363    -2.221868401117
H      2.415032011825     0.742995689353    -0.484782752005
H      3.275661747136    -0.370017944003    -1.619038887449
N      0.056215853333     0.686621122212    -1.671323634918
C     -0.741710573390     1.134432164090    -2.591670584673
O     -1.843134558780     1.844522838241    -2.363964472005
C     -0.477393486588     0.897192146921    -4.022949242915
H     -1.215102567994     1.460856055030    -4.624424634600
H      0.535074303456     1.270186946519    -4.252045291063
H     -0.583471110676    -0.180153615951    -4.236670971143
N     -3.741238489727     2.166738613745     1.986236574988
C     -4.682114042683     1.544506887398     2.760007857157
C     -5.450252239332     0.523252489358     2.226742520639
C     -5.286174000591     0.140798472348     0.910115415541
C     -4.345156978760     0.793911281910     0.156234837158
C     -3.591601446520     1.824382290292     0.763051442394
H     -4.811041373307     1.841807472542     3.794006631569
H     -6.183684811879     0.032735849371     2.844679914388
H     -5.889257906273    -0.655028238837     0.481575948557
H     -4.173204258768     0.560105189420    -0.873724755867
O     -2.678174583991     2.404358762735    -0.059418436906
H     -2.151868092793     1.981566351500    -1.401784447768

