# STO-3G

title

0 1
C      1.386098957049     3.240121150483    -0.844249485717
C      2.638587851209     3.002333592527    -1.449293766125
C      3.297287723859     4.038123400744    -2.143855177476
C      2.706854516560     5.312725331423    -2.249167489518
C      1.452888192893     5.548634627236    -1.654526218229
C      0.792915230964     4.517955381353    -0.951398259758
H      0.467401432473    -0.378820693175     1.409506431198
H      3.102073710262     2.018878818613    -1.394085044997
H      4.264085347907     3.843854704868    -2.604023510194
H      3.216309350119     6.108480146527    -2.787433840756
H      0.987979633087     6.529568822687    -1.731851636953
H     -0.176829298117     4.723767617583    -0.499551726732
C      1.649249828470     2.095896278607     1.944386027507
H      1.734482921773     1.106033910419     2.385493695985
H      2.556573304400     2.498931381106     1.508053286800
C      0.515630598446     2.891144583434     2.106008370088
H      0.531334579655     3.910930989411     1.751635075946
C     -0.634599539283     2.538120467816     2.956841076512
O     -1.678802024554     3.236306258133     2.866117296104
O     -0.531005492910     1.484607561872     3.882873645480
C     -1.740056433221     1.131498593608     4.568070086600
H     -1.535246486361     0.289601959404     5.263849147158
H     -2.124599686643     1.989853252529     5.164265885835
H     -2.519095690816     0.799439433260     3.844810083085
Pd     0.379267601901     1.791162148870     0.099576065683
C      0.915704188318    -2.356758414273     1.670959151336
O      1.686566876604    -3.308484553006     1.559608181174
O      1.295902326222    -1.072544480443     1.265942841036
C     -0.539744600746    -2.366275791677     2.244571419952
H     -0.509944144922    -1.698905251599     3.126909290390
C     -0.967387624751    -3.743335705031     2.684992065641
H     -1.976449381299    -3.691047020433     3.142987731707
H     -1.011850558751    -4.408528902308     1.797911115320
H     -0.248724464284    -4.156028209427     3.422849100681
N     -1.563751453649    -1.900201040244     1.280610769576
C     -1.577474995639    -0.676214924015     0.878574755165
O     -0.685184265824     0.292078137648     1.224565530963
C     -2.673872209511    -0.285503616193    -0.012750574265
H     -3.621191041808    -0.520767817787     0.502259849869
H     -2.603614304966     0.791781962390    -0.230457971127
H     -2.584702745581    -0.883727735289    -0.936867406560
N      0.200514222246     0.846478560828    -1.752256042108
C     -0.562584958799     1.450703448006    -2.716143466083
C     -0.584835340879     0.947289184926    -3.998543449824
C      0.167549987837    -0.157602320709    -4.327398670395
C      0.928229533749    -0.738395084107    -3.348521303724
C      0.918216545688    -0.205433726548    -2.041387333109
H     -1.152938552203     2.324749830401    -2.466822212063
H     -1.188708780387     1.429505945681    -4.749880916884
H      0.160074671295    -0.557305548987    -5.338093660886
H      1.537183955806    -1.600489451408    -3.540324273968
O      1.707929912975    -0.853187432363    -1.215418381124
H      1.625833550872    -0.838456792176    -0.181928033450

