# STO-3G

title

0 1
C      1.510840103293     2.504369039637    -1.016461260116
C      2.900522504774     2.384500211485    -0.808819605193
C      3.779490653405     3.184756797609    -1.570587297378
C      3.279027364369     4.092906250861    -2.523624529790
C      1.888708884466     4.204369601200    -2.720129540359
C      0.998366397527     3.410233463065    -1.966415705858
H      0.733770983874    -1.258739889488     0.613053866879
H      3.300743128486     1.675484455512    -0.086474050053
H      4.852316592843     3.092535622967    -1.414553494267
H      3.962756521150     4.708103994719    -3.104107521303
H      1.492530086732     4.905940194626    -3.451966788320
H     -0.074951808943     3.503818008697    -2.125980028254
C      0.665551607372     2.224363331553     1.983949817968
H      0.233538549666     1.526916464097     2.695396634483
H      1.739943652801     2.365496643690     2.037451395761
C     -0.132068072536     3.107475823724     1.247301936074
H      0.336298711986     3.908941847914     0.699908324223
C     -1.600487748676     3.194752894482     1.323711227999
O     -2.186806826961     4.038585254003     0.598892621264
O     -2.318076730220     2.213356231247     2.028986933901
C     -3.748130932167     2.302931401815     1.937001909333
H     -4.213650776702     1.504004823098     2.552814480909
H     -4.110914485156     3.284911913663     2.318063282105
H     -4.085153054045     2.167787018045     0.883375556367
Pd     0.340226370725     1.256723811205     0.012511767696
C      2.228501374841    -0.650583107489     1.750427755615
O      3.256108645516     0.044961205328     1.724717885096
O      1.739299149236    -1.208550173792     0.587413902594
C      1.503994393576    -0.987969796184     3.099935248618
H      1.899401688542    -0.248992282136     3.809491119453
C      1.942022875464    -2.352570588013     3.591503512173
H      1.552025895571    -2.525873134933     4.616618632055
H      1.530303971747    -3.131916024779     2.917785357753
H      3.049696332735    -2.424720817007     3.612125505326
N      0.050613703611    -0.978773750650     3.234998925002
C     -0.859876477637    -0.752493826047     2.363944623550
O     -0.702158946092    -0.450949112773     1.040012364317
C     -2.239574703663    -0.880019025864     2.850355783804
H     -2.357886834636    -1.900797779644     3.253651335179
H     -2.375687630597    -0.137965893554     3.655356548172
H     -2.955293927012    -0.704326647953     2.029650813463
N     -0.115023595967     0.189679849802    -1.779945845717
C      0.725647331092     0.143979087757    -2.861706572244
C      0.247388739270    -0.266619759873    -4.090352420429
C     -1.065966833573    -0.654097185655    -4.238939790383
C     -1.877419102396    -0.640305311174    -3.135128738616
C     -1.350401564034    -0.227755801514    -1.893201412766
H      1.763001707925     0.439577655583    -2.760571372794
H      0.914837960598    -0.285475906091    -4.936176123810
H     -1.444207274689    -0.979265093030    -5.204451756780
H     -2.899107148751    -0.959715826550    -3.175066630161
O     -2.188352074296    -0.309644811395    -0.879935674422
H     -1.679430242922    -0.346050926140     0.065175045261

