# STO-3G

title

0 1
C      1.479154919678     2.455681808014    -1.119401104060
C      2.870178946537     2.217976897054    -1.159796145967
C      3.687683556126     2.953541098341    -2.044331172005
C      3.123959804810     3.921724367813    -2.896754618097
C      1.733917744462     4.146331997862    -2.867571013142
C      0.911889541859     3.416082990578    -1.984231479009
H      3.713533927227     0.943246627531     1.857918014343
H      3.311464877898     1.438938744640    -0.542670731657
H      4.759050890648     2.762857138000    -2.070165820466
H      3.755747275093     4.487872760699    -3.577214595062
H      1.285072968849     4.884600495598    -3.529610677054
H     -0.162948786578     3.590940897965    -1.987466664375
C      0.749248883672     2.539286025474     1.897716321941
H      0.481864087954     1.884888993825     2.720406587766
H      1.788452088053     2.841792355629     1.827325290261
C     -0.233583683038     3.221745652125     1.167823658860
H      0.064279176896     3.996748509455     0.479543206417
C     -1.680604850242     3.173813751336     1.444694762969
O     -2.453723186626     3.836839635103     0.706370669956
O     -2.169893733157     2.371578092773     2.489053476728
C     -3.597345727732     2.263182847338     2.577519977749
H     -3.864037974196     1.601430202199     3.429393296491
H     -4.061434168814     3.260388741231     2.752332661169
H     -4.017205488253     1.816606205437     1.646765730467
Pd     0.357816615795     1.324637937975     0.088658149153
C      2.222200062368    -0.312459466841     1.996850979802
O      2.189768442281    -0.483210569852     0.765443733125
O      3.164675127565     0.536713724850     2.566427662150
C      1.256943921833    -0.895003102164     3.044619963465
H      0.857846067610    -0.018381924889     3.586280163518
C      1.983744678273    -1.765278094443     4.046427183765
H      1.270761442089    -2.105376534269     4.825908879534
H      2.389213954820    -2.658255411753     3.527233382271
H      2.809731474870    -1.205534777147     4.532315173549
N      0.205324358175    -1.720696839005     2.479160408337
C     -0.747084379496    -1.256969893740     1.748836423064
O     -0.943773083260     0.015446409243     1.311913826371
C     -1.757945541611    -2.265189165551     1.380889416908
H     -1.260310884460    -3.011086552818     0.737035261357
H     -2.095570691252    -2.750286580577     2.313448520919
H     -2.621467510073    -1.816671969994     0.864321242969
N     -0.318252424315     0.249261613658    -1.605436680939
C      0.453277646102    -0.064893207925    -2.691856695510
C     -0.142134762170    -0.547130389090    -3.840507424201
C     -1.507462138581    -0.722856604477    -3.903912873470
C     -2.255766049065    -0.425751437795    -2.794504013581
C     -1.613568239292     0.054575503432    -1.633790593526
H      1.527753702919     0.070529225224    -2.653781504599
H      0.472513858712    -0.782333531811    -4.693878420955
H     -1.978188409728    -1.097642626587    -4.808906306225
H     -3.319362915826    -0.552447371639    -2.773390473001
O     -2.398755980012     0.275724417544    -0.602890770992
H     -1.837498539291     0.218171485849     0.368105282972

