# STO-3G

title

0 1
C      1.399583383236     2.662842748074    -1.064492365599
C      2.807632335867     2.574181888670    -1.054177801099
C      3.561165556075     3.378980346070    -1.935653334510
C      2.920236073452     4.262999268935    -2.824972119172
C      1.514168656301     4.339508620211    -2.837662226852
C      0.751681198042     3.540100300068    -1.960091145257
H      0.831435595674    -2.552868122952     0.596777432360
H      3.309454901425     1.871529545457    -0.395343118366
H      4.647046994362     3.307579729924    -1.926916334125
H      3.506638301264     4.880984521641    -3.501216946831
H      1.007793282174     5.013956843730    -3.525807761652
H     -0.335680763372     3.600833893203    -1.990379902724
C      0.933679554740     2.680681712313     1.930945319109
H      0.835989700755     2.016056073013     2.783846997808
H      1.939152155563     2.970800614058     1.648577759146
C     -0.180757263736     3.332659133856     1.400219201353
H     -0.048957763405     4.104006914072     0.656834422529
C     -1.544459474852     3.222304401313     1.949742450274
O     -2.486832205337     3.783742692365     1.334392546696
O     -1.765954628019     2.504688678816     3.138525642927
C     -3.134255345519     2.383426635670     3.551115157961
H     -3.184013767860     1.796381420723     4.493454203975
H     -3.581491649075     3.385509159480     3.741838349779
H     -3.733906687464     1.850953903395     2.778149500657
Pd     0.304990243149     1.501416807283     0.145163181405
C      2.000812405810    -1.045967195561     0.898590978020
O      2.824851051382    -0.227900514914     0.469984544824
O      1.587591253860    -2.110961049008     0.127035733701
C      1.306494372087    -0.971594139268     2.286661991509
H      1.275866126472     0.089856266116     2.553480388697
C      2.097580335843    -1.712808741756     3.338799955571
H      1.602343219374    -1.595335015382     4.324690495735
H      2.122354096434    -2.793308645907     3.083245409888
H      3.133329380554    -1.318770193897     3.397333669398
N     -0.011809024138    -1.614540768370     2.228184688294
C     -1.045330269513    -0.950756609809     1.802344057164
O     -1.109800154020     0.297369341342     1.317883172850
C     -2.312375822824    -1.695896747596     1.861653447395
H     -2.213680073733    -2.571874788181     1.196650275301
H     -2.451690599563    -2.031667158451     2.903600719674
H     -3.156682404903    -1.058361925425     1.546608447884
N     -0.109924960684     0.237767861661    -1.494701295008
C      0.843116137432    -0.152851319417    -2.398616354937
C      0.459709410030    -0.745691343876    -3.585558830250
C     -0.871565866421    -0.970615442845    -3.860170432935
C     -1.802174837678    -0.599236683026    -2.924133776238
C     -1.370970828401    -0.002900130666    -1.722004516245
H      1.892940505170     0.018044901640    -2.191401596929
H      1.216180294589    -1.042732371608    -4.292973729732
H     -1.174974815607    -1.441683964069    -4.791222014985
H     -2.850930162870    -0.764092490627    -3.066809573708
O     -2.335393482346     0.277072912840    -0.861679122736
H     -1.969359356492     0.411958028984     0.112625156307

