# STO-3G

title

0 1
C      1.383385512594     2.484973611334    -0.808402000711
C      2.703315534595     2.614696536768    -0.314202852514
C      3.699674709205     3.238751218512    -1.097332774400
C      3.391054790826     3.745595700667    -2.373506772896
C      2.073685504531     3.636155403614    -2.860416768134
C      1.075521348971     3.012075376419    -2.083798315841
H      3.493903836205     0.150049017817     0.070750792879
H      2.963619248284     2.268309604652     0.684598630276
H      4.708931036890     3.337783014368    -0.701019956230
H      4.158943415032     4.229579991963    -2.972656343353
H      1.818156843995     4.039644333407    -3.838764242963
H      0.061521761288     2.940643635010    -2.473598359505
C      0.312289301948     2.706459091170     2.069060966234
H     -0.155787443984     2.116845982103     2.850469685700
H      1.387659917169     2.821695476645     2.136552048746
C     -0.451893658822     3.509602886448     1.205165128424
H      0.042095526886     4.213044324101     0.553212858610
C     -1.912786218610     3.680836525251     1.302545071801
O     -2.496808980617     4.366807101802     0.424081804773
O     -2.619539368423     3.103488215753     2.371970452740
C     -4.046329260872     3.241463032305     2.325780598219
H     -4.492828601039     2.744498161785     3.213443535669
H     -4.342061163520     4.315083249037     2.341907719728
H     -4.459621782833     2.755928600971     1.412290128358
Pd    -0.016731149318     1.519630840601     0.256793729899
C      2.652231905431    -0.509828682270     1.709738405205
O      3.140807059188     0.384021608631     2.420205500462
O      2.992778361034    -0.642266724368     0.373956160578
C      1.479747713360    -1.419832775201     2.145895955627
H      1.533958396549    -1.544820594460     3.238933110700
C      1.458358422876    -2.774480112906     1.467930362193
H      0.605907834749    -3.372261366842     1.845880859849
H      1.339859189229    -2.637172040229     0.371546500447
H      2.405398197948    -3.315802211722     1.669280979533
N      0.369791939159    -0.627297979207     1.658591089926
C     -0.845108278631    -0.477492847848     2.051504559475
O     -1.595635139232     0.466439398254     1.469132699426
C     -1.439244514660    -1.262043618348     3.148550029621
H     -1.415954862092    -2.325986687709     2.860851256610
H     -0.845181120322    -1.081215949198     4.059517677455
H     -2.482220870208    -0.929528780967     3.302035494248
N     -0.355159032855     0.165485612696    -1.354577515674
C      0.658783903744    -0.252009423110    -2.176922853015
C      0.377052497262    -1.057184270656    -3.263329426181
C     -0.914667050181    -1.457830069944    -3.523186891259
C     -1.904043013769    -1.062458845129    -2.661741637457
C     -1.574183733680    -0.256718829570    -1.550942825606
H      1.679388007650     0.058212831877    -1.988324166934
H      1.180898955961    -1.367068151918    -3.910496064532
H     -1.140281644983    -2.087157365802    -4.379833286858
H     -2.924213929511    -1.363694152791    -2.788029714340
O     -2.584870311019     0.002177759808    -0.742426557045
H     -2.286944000036     0.258942137738     0.238406002458

