# STO-3G

title

0 1
C      1.303063575118     2.583808407511    -1.129222945442
C      2.700942512010     2.413780475869    -1.136114975945
C      3.507499057802     3.308382596252    -1.872986228725
C      2.924314261754     4.360519971628    -2.603982555442
C      1.524833275557     4.520526218325    -2.597127442464
C      0.710381224386     3.635360784472    -1.859948940776
H      0.006020832047    -0.933297724292     0.830618995104
H      3.167151045335     1.590158936179    -0.601844396013
H      4.586390006182     3.170160854451    -1.877810488874
H      3.550326786988     5.044638564605    -3.171585923018
H      1.064105126855     5.332169000597    -3.156556371358
H     -0.367885178639     3.785414185094    -1.852633202671
C      0.588227159477     2.011157096672     1.987850913060
H      0.039197185005     1.329440292910     2.630166556036
H      1.669994358616     1.905391312293     1.999252610124
C     -0.017251285355     3.095340253505     1.363891985436
H      0.602501008919     3.818927282346     0.860962186824
C     -1.430699806718     3.485672315369     1.497165559942
O     -1.862793270255     4.415613128016     0.768462321351
O     -2.302084988223     2.709216497379     2.278478295654
C     -3.662914796791     3.163429465765     2.334183356315
H     -4.252707679654     2.491844182160     2.994732310573
H     -3.720148973738     4.194124192645     2.752940670042
H     -4.127996709906     3.149695228834     1.322227410453
Pd     0.153548074464     1.298250125121    -0.112119748470
C      1.751953522678    -1.154410603136     2.293800101105
O      1.344467990145    -1.174626081198     1.007029313310
O      2.902457555325    -0.840763248485     2.656801131708
C      0.657466749688    -1.567494605438     3.342335988698
H      1.026431306976    -1.179441914920     4.299394026848
C      0.584209562892    -3.075895299411     3.466297925775
H     -0.089480728510    -3.350607933787     4.304995700688
H      0.174409021836    -3.498779021829     2.526127059488
H      1.591400901570    -3.500615060110     3.659299490110
N     -0.730057473649    -1.113408191949     3.209517924072
C     -1.392050938394    -0.672384068609     2.211878664713
O     -0.962257069567    -0.470345543584     0.905895309660
C     -2.809112392407    -0.387538747051     2.447827277709
H     -3.293389608502    -1.336068764279     2.734860781126
H     -2.866530311912     0.332763075131     3.280452874484
H     -3.264182333110     0.025837530587     1.531283679521
N      0.253225718805     0.118442922317    -1.830101262691
C     -0.685363993661     0.349235774079    -2.798236262102
C     -0.523845755196    -0.181669299041    -4.060707314502
C      0.577158154719    -0.953718059695    -4.358206920295
C      1.494178573195    -1.188923273058    -3.368943185490
C      1.295718893258    -0.637603780536    -2.083497630659
H     -1.548773332883     0.964694936437    -2.574680697921
H     -1.263559980316     0.014749387542    -4.818853768658
H      0.712079094480    -1.371546064934    -5.352221974198
H      2.366764634798    -1.788745923160    -3.532209408358
O      2.221647305805    -0.942158048068    -1.214024952809
H      1.963152021545    -0.972972213879    -0.145746524718

