# STO-3G

title

0 1
C      0.369742803606     2.892765015789    -0.056918169628
C      1.726338065804     3.248564829272    -0.196375581834
C      2.082392406458     4.608423923267    -0.308022772464
C      1.092378529707     5.610534874508    -0.287443990617
C     -0.260381101290     5.248604953176    -0.146696018807
C     -0.626671180539     3.890271276740    -0.027130316279
H     -0.377447887199    -1.516817825301    -0.405594034779
H      2.503073241859     2.487010218849    -0.212415049389
H      3.132162358698     4.875808359811    -0.410605105533
H      1.372815594742     6.657209284834    -0.376733422754
H     -1.032305667044     6.014868255862    -0.122760271576
H     -1.676361724930     3.630523407072     0.095191076734
C     -1.193587547882     0.984312062249     2.045419035538
H     -1.837864055640     1.849851247349     2.163590110228
H     -1.689849900413     0.021664940652     1.980247240103
C      0.174652725673     1.038370214707     2.316443109594
H      0.761977310435     0.128675796929     2.344601183537
C      0.863838727982     2.228607493471     2.850247674237
O      2.106178249171     2.181119930167     3.042657003569
O      0.123219353390     3.395131196965     3.116349446345
C      0.890082964545     4.546986591684     3.492981309721
H      0.206341126229     5.405372501147     3.664184899780
H      1.456444052014     4.356608919829     4.432798444162
H      1.600958244148     4.827802005239     2.682717904161
Pd    -0.256872011558     0.998536183799    -0.005671021468
C      0.619332171046    -2.343568655849     1.435906733082
O      1.335229333259    -2.014067978398     2.405089453438
O      0.847475757326    -1.950473851160     0.166399158225
C     -0.683059100381    -3.191539122631     1.645649002947
H     -0.737580282520    -3.378317624738     2.723490091506
C     -0.602418675790    -4.529176478742     0.939519832912
H     -1.489274726647    -5.143235906247     1.201628085107
H     -0.592378616857    -4.365126332571    -0.157549211729
H      0.316704524522    -5.071689051669     1.243342832990
N     -1.969802082453    -2.594241783349     1.254836316851
C     -2.210141058251    -1.700929483356     0.376515207327
O     -1.313455388698    -1.023483584493    -0.442552243449
C     -3.614139221150    -1.324616115099     0.185681306135
H     -4.007260323769    -0.963547791721     1.150968095518
H     -3.686377663748    -0.548279385497    -0.594607864099
H     -4.162553734972    -2.231633499066    -0.125396646004
N      0.650354380753     0.801503086185    -1.881849754658
C      0.152438684488     1.519685358792    -2.935376431609
C      0.885163901936     1.644227112307    -4.096833037266
C      2.120424319099     1.047003551640    -4.211179227591
C      2.592849798191     0.320514349284    -3.151039377983
C      1.813330384144     0.200692033742    -1.978653229254
H     -0.813262076593     2.003697630531    -2.848705462536
H      0.488508184346     2.220985466526    -4.915770023730
H      2.704808120264     1.146462359903    -5.121968369239
H      3.542914536408    -0.174635338296    -3.179138465856
O      2.363200826060    -0.522360093502    -1.038600464246
H      1.752241060436    -1.119833277012    -0.345514266704

