# STO-3G

title

0 1
C      1.023715200091     2.629508540986    -1.048371582586
C      2.369636056033     2.605575617661    -1.467214172706
C      2.883025495358     3.673315008013    -2.231583328674
C      2.058867134091     4.760532663526    -2.583485456366
C      0.715578566905     4.777893811924    -2.164838879485
C      0.193140804318     3.713943311548    -1.396983424902
H     -0.034486162825    -1.205740076542     0.786066554981
H      3.015054259522     1.767367832370    -1.214591314478
H      3.923064691735     3.649381474098    -2.549759717552
H      2.459846791669     5.582998441468    -3.170501158534
H      0.072989253433     5.617094234786    -2.421899575785
H     -0.844270944199     3.755773075267    -1.071211408696
C      1.304972184366     1.889064572080     1.731188862788
H      1.909628214016     2.728457898314     1.409212194739
H      1.844946128471     0.979057422176     1.980844006323
C     -0.050069220273     2.019867177437     2.039523949765
H     -0.546329174214     1.192890781291     2.522678244216
C     -0.805337471194     3.283581278861     2.062537855563
O     -0.272220639594     4.343843260699     1.646364569077
O     -2.171972140154     3.231518496351     2.383374928386
C     -2.866413525761     4.487209992475     2.371164852004
H     -3.929865682855     4.324279487181     2.650807423479
H     -2.419496895371     5.194075777715     3.107207868829
H     -2.840132883190     4.946601922238     1.356809184081
Pd     0.187192151028     1.101024282095    -0.070546665136
C      1.396245482707    -1.643794820803     2.478965812479
O      1.227193630737    -1.464783644760     1.150027807317
O      2.482058697486    -1.485478758355     3.068312856822
C      0.097610090285    -2.058121285011     3.264361912616
H      0.344942532012    -1.886005545343     4.317454114106
C     -0.186345953746    -3.537433843642     3.094887556735
H     -1.027758048815    -3.834614207016     3.755344153393
H     -0.470526513662    -3.736652105132     2.041200668725
H      0.709238584691    -4.137396168097     3.359162035713
N     -1.175113599597    -1.366373181001     3.009662870235
C     -1.624435985257    -0.829807822312     1.941877854875
O     -0.996123344661    -0.698037525731     0.714009698408
C     -2.982919202833    -0.281105984560     2.002448949879
H     -3.662770102649    -1.111745968639     2.258610448750
H     -3.008016226825     0.483371278010     2.797848676955
H     -3.255828620348     0.155972435305     1.026201963706
N      0.536379125960     0.008794368405    -1.826453070978
C     -0.220074890513     0.285265716693    -2.932874673476
C      0.159398303985    -0.195068885458    -4.168650345694
C      1.298147956968    -0.957544738006    -4.301979899863
C      2.032786879171    -1.232332570453    -3.179326970710
C      1.611065164888    -0.734406782363    -1.926348051820
H     -1.111224709435     0.894409524230    -2.837308675716
H     -0.438010405046     0.036362124492    -5.034769002458
H      1.604913497625    -1.334741542606    -5.273840255623
H      2.924784233164    -1.825059918168    -3.214728948185
O      2.392827723196    -1.064965422262    -0.928221026363
H      2.000141412674    -1.168269470105     0.075390786412

