# STO-3G

title

0 1
C      0.205135990649     3.220078578793     0.108929787882
C      1.574004766444     3.408240827055    -0.173876509581
C      2.057453907029     4.701725569386    -0.457741029532
C      1.181108923093     5.805084761599    -0.467100629225
C     -0.184344554140     5.610990701721    -0.185967703892
C     -0.676694229993     4.319994049614     0.105574571850
H     -0.808085456712    -0.993039536006     1.649128824257
H      2.257652674492     2.562083400434    -0.166470759808
H      3.115582901744     4.840796528492    -0.670971729551
H      1.557929900987     6.800851995048    -0.688611580204
H     -0.868065446579     6.457571734116    -0.185601050908
H     -1.733336300692     4.190458371190     0.331203186243
C     -1.325810157961     1.782341973954     2.535138748250
H     -1.724306250784     2.789083463916     2.606098676020
H     -2.045683070909     0.970137995936     2.533292340505
C      0.034994094387     1.519858085529     2.714584927075
H      0.403636606165     0.501387310694     2.771571591154
C      1.027403349570     2.554497519133     3.059124922285
O      2.234470980212     2.227003259778     3.198691541807
O      0.606118239037     3.886627643953     3.228724548206
C      1.649131432627     4.852379950030     3.416981693564
H      1.200059716049     5.862732227540     3.522626899241
H      2.234381294006     4.629571811204     4.337768596269
H      2.332478644084     4.868930661374     2.537785664595
Pd    -0.512417558768     1.402418756306     0.467265703218
C      0.667759030097    -2.535213698777     1.241908563604
O      0.416709114775    -1.642658605119     2.149713115071
O      1.730136770104    -2.520626011208     0.495703715238
C     -0.507603854292    -3.507986058435     0.898598948305
H     -0.991656780345    -3.784658927949     1.846573314823
C     -0.069722476214    -4.761106194173     0.181388406927
H     -0.945052279741    -5.426227759777     0.030881108541
H      0.343108605160    -4.487704172863    -0.811276058960
H      0.701507121973    -5.294708852776     0.773585548182
N     -1.503588320350    -2.853142847958     0.025297095619
C     -1.879230561234    -1.634400169140     0.068579236022
O     -1.489239620900    -0.623895765359     0.948943702552
C     -2.894180899627    -1.201699146014    -0.896647577625
H     -3.165622136511    -2.057161461253    -1.543056471611
H     -3.773680113272    -0.861228656918    -0.327169713826
H     -2.469044662054    -0.387902416165    -1.503744906394
N      0.149863055541     0.860833316471    -1.444626022916
C     -0.376726702349     1.225534456517    -2.652422467173
C      0.091226506950     0.638827030228    -3.810854008743
C      1.106027712285    -0.294603411178    -3.764416462850
C      1.650086460507    -0.608344564919    -2.545666974639
C      1.148453227684     0.020036422681    -1.383401501114
H     -1.183434585961     1.948075823344    -2.693640271700
H     -0.340441461928     0.916354760931    -4.758458016137
H      1.478155292641    -0.757151049499    -4.674782980678
H      2.463527463357    -1.298850727595    -2.447388494232
O      1.732857858269    -0.236407832009    -0.238568724025
H      1.945604746872    -1.272144104177     0.102598866476

