# STO-3G

title

0 1
C      2.805766006240     1.106450211500     1.036467992803
C      2.651938117864     2.460835356317     1.440112838889
C      3.484576140428     3.479200967967     0.929437348476
C      4.488346399510     3.177902485453    -0.009842698668
C      4.658694640203     1.843549943278    -0.425658352317
C      3.834414468123     0.826060376256     0.096279276216
H      1.022284485711     0.968558703653     3.266896084635
H      1.885151394982     2.745554498309     2.156160463234
H      3.343873095016     4.504757370926     1.267185275852
H      5.125894694939     3.964949773008    -0.406692691074
H      5.433337073339     1.592372075625    -1.148687789435
H      4.002216396562    -0.195110324740    -0.239420846354
C      0.698209117879    -1.648649668150     3.511760460333
H      0.211394496974    -0.922561719215     4.157414666867
H      1.675503143445    -1.990401845299     3.835217665439
C      0.032653743265    -2.251855932732     2.460448108772
H      0.495316382820    -3.067666851855     1.927243478271
C     -1.386840591849    -2.017977977735     2.146798715118
O     -2.062420691924    -1.234110344358     2.861003506571
O     -1.942124456465    -2.667947183972     1.031623376047
C     -3.294025826070    -2.303521573611     0.713749904665
H     -3.646728839444    -2.891959849876    -0.159671382964
H     -3.978878621739    -2.509680222746     1.568901481206
H     -3.360880614308    -1.222781957364     0.453319289448
Pd     1.501742558274    -0.452478652531     1.541736527154
C     -6.181463540806     0.120698974790     2.099277380339
O     -5.073376635936     0.260653473704     1.677882701557
O     -7.292433663224    -0.026709056351     2.509016292532
C     -0.544131383674     0.938256159997    -0.075998972648
H     -0.662278504395     1.917217320930    -0.533041972446
C     -0.164550196045    -0.213063166008    -0.945254749900
H      0.921545857268    -0.170784737124    -1.162286243303
H     -0.420565390170    -1.164113551725    -0.443353018321
H     -0.732170645940    -0.152414186507    -1.895506023633
N     -0.147013473410     0.798156494878     1.211898616228
C     -0.571572574076     1.432816960182     2.284630248526
O      0.189782160476     1.505079383743     3.417770108738
C     -1.908314098138     2.025119984831     2.346940845438
H     -1.987173297058     2.821802881011     1.590863002679
H     -2.648022197854     1.225606282614     2.154047455623
H     -2.076301543051     2.437143814023     3.358458852572
N      3.079303213164    -1.991534859911     1.471969959555
C      3.109905911507    -3.052489860865     0.605177224038
C      4.116502317018    -3.991583702736     0.703803472063
C      5.097547251807    -3.871607040640     1.667256463390
C      5.047082328358    -2.793181889637     2.512812221424
C      4.006530272267    -1.858445842783     2.366025172742
H      2.338547223600    -3.156738370941    -0.149402650955
H      4.132741757911    -4.828325318550     0.023040507966
H      5.891366381790    -4.609787472367     1.750789101181
H      5.781614642290    -2.630960501064     3.277880551218
O      4.043370526722    -0.834008460537     3.217373959814
H      3.363847566024    -0.145795483943     2.944287156873

