# STO-3G

title

0 1
C      0.226994239835    -2.455805123834     1.347929234970
C      1.635928639238    -2.410373954358     1.319822111540
C      2.381106955208    -3.600274667693     1.194630109238
C      1.717438589102    -4.840219704380     1.094509902987
C      0.308935449338    -4.888109530961     1.123911255710
C     -0.433572841987    -3.696804558983     1.251393872931
H     -0.345805374466    -1.529049297933     1.422033366654
H      2.140274928597    -1.450752207864     1.400756584003
H      3.468345854592    -3.563477839438     1.181763490759
H      2.291144010611    -5.759689476435     1.001091125576
H     -0.205538664729    -5.843998915418     1.053485770098
H     -1.521757226721    -3.727820358608     1.273375091709
C     -2.859582314945     0.734672459519     1.441508128266
H     -3.226198536275    -0.148510709585     1.972496448435
H     -3.142097053027     1.677233514336     1.903148176244
C     -2.666803374883     0.675019233730     0.008284525896
H     -2.784866330271     1.588444366507    -0.560238879582
C     -2.915076375010    -0.555022113709    -0.766835963649
O     -2.813215523355    -1.668028153982    -0.185497488522
O     -3.298992169250    -0.460842479925    -2.113240954678
C     -3.688624500051    -1.689595861639    -2.743993905448
H     -3.961505838222    -1.488072768670    -3.802744843599
H     -2.855322920542    -2.427491139755    -2.735228205779
H     -4.576190412621    -2.130360584577    -2.235990004099
Pd    -0.786021909106     0.794414743503     1.027454587692
C     -0.642033118085     3.968396341545     1.587863902783
O     -1.831814019944     3.908035490946     1.525449421404
O      0.544998742631     4.092355640203     1.648849392572
C     -0.098615950260    -1.023852298379    -2.812986850853
H     -0.806812196959    -0.993876869162    -3.641369111713
C      0.222336612358    -2.339107562915    -2.160665141882
H      1.239256019506    -2.323733573230    -1.718302693329
H     -0.520609174961    -2.532916785036    -1.366284224394
H      0.171757067655    -3.147116438727    -2.916319247085
N      0.418164171275     0.014284198490    -2.300223277029
C      1.291123109549     0.530735861122    -1.428719918371
O      1.038749411749     0.967139943519    -0.275512385563
C      2.650674487994     0.701927394873    -1.971373100979
H      3.036484407840    -0.294642870122    -2.241432173389
H      2.570504218951     1.341924798322    -2.866362883082
H      3.290916073355     1.180897166605    -1.209329271038
N      0.599204417403     0.970907092721     2.723382426924
C      1.863270904782     1.499653649272     2.673698050095
C      2.678989989053     1.428071336499     3.788611275321
C      2.224291306523     0.854368258981     4.958002233181
C      0.948545620795     0.350591856104     4.982778321340
C      0.162453529343     0.438315865360     3.819955390433
H      2.227775095271     1.962169110576     1.764365861246
H      3.670266771042     1.848170960114     3.741979792989
H      2.859425354400     0.807981204671     5.838615956598
H      0.528651305775    -0.103066128385     5.858041219615
O     -1.070218044800    -0.066553628423     3.923784521040
H     -1.535873692573     0.064078322392     3.034919607469

