# STO-3G

title

0 1
C      2.117354044478     0.707617638074     0.439473307137
C      2.656021370591    -0.500716365441    -0.048443687706
C      3.940586839684    -0.913519776506     0.364427490487
C      4.694797399152    -0.117497961839     1.248016591512
C      4.154568623237     1.091205766640     1.729307488872
C      2.866084241176     1.504699996726     1.330871535858
H     -2.338129234916    -0.720137262924     2.889331004030
H      2.089113450947    -1.119777522707    -0.739539323369
H      4.346717174810    -1.851548689217    -0.009496527744
H      5.687233556268    -0.435936630894     1.559030763691
H      4.727994666124     1.709149036468     2.417582957048
H      2.447880101066     2.425273190905     1.730568288603
C     -1.923861860499     2.056002064037    -1.171350810870
H     -1.438838506207     2.774131192432    -1.823487662244
H     -2.191804553150     1.105077043948    -1.619757405242
C     -2.254356076236     2.330246741788     0.122813915347
H     -2.795210702968     1.595090118402     0.704764348483
C     -1.976308575839     3.602198741601     0.808222004736
O     -2.422562011967     3.779424978604     1.972369306673
O     -1.095716603029     4.525386214568     0.212877380199
C     -0.821509184904     5.707527673662     0.978158585824
H     -0.126304625033     6.362915765286     0.410745731533
H     -1.757554879875     6.279508354139     1.172002099426
H     -0.341015083873     5.447429382367     1.949009758761
Pd     0.286462665647     1.339362902362    -0.042155031826
C     -2.738070927569    -1.252910975450     0.419907404310
O     -3.774667208135    -1.224619630310     1.113191473684
O     -2.728402692150    -1.365133751048    -0.913685863507
C     -1.346406374216    -1.117770704515     1.108536423135
H     -0.654006353084    -0.586995203446     0.447202763887
C     -0.735532828480    -2.457777402712     1.449038258953
H      0.252093902015    -2.302390650335     1.931561330947
H     -1.398618208143    -2.994681795389     2.159729298823
H     -0.602287522299    -3.065786501058     0.530424955035
N     -1.539055486196    -0.378999585351     2.359381245575
C     -0.968237890487     0.779706247439     2.713142665740
O     -0.163387881385     1.479898544417     2.022474880785
C     -1.343569786335     1.297596961463     4.040033308258
H     -0.816619346454     2.250534676194     4.222565140865
H     -2.434414498962     1.468129734317     4.036380386609
H     -1.067587206620     0.544159903780     4.797740168249
N      0.771208358143     1.044679073047    -1.990311701403
C      1.717872168555     1.812216124661    -2.610518116580
C      2.083802656526     1.534660150752    -3.909084243821
C      1.513846269870     0.482758108992    -4.590432040968
C      0.580881061313    -0.286301067667    -3.945943143851
C      0.222064319109     0.006436380227    -2.608718934141
H      2.167403666633     2.646058276993    -2.083598023020
H      2.826996743958     2.147973685737    -4.392211234273
H      1.803337981722     0.262771234652    -5.614730663380
H      0.115996786583    -1.126864808592    -4.421343281861
O     -0.629447949112    -0.782979805791    -2.070085099633
H     -1.822562617835    -1.161965026784    -1.392435162865

