# STO-3G

title

0 1
C      0.045262409826     3.029865760646     0.777090320963
C      1.126085224166     3.828389420604     1.226175808838
C      1.379032095929     5.086630635579     0.650655723921
C      0.551253425473     5.581869926972    -0.375666084556
C     -0.541126351941     4.809044104207    -0.816738861819
C     -0.792955223757     3.553135519513    -0.241119578068
H     -3.904464986329     0.292543650662     0.657931117389
H      1.754518362225     3.486358685666     2.044256374121
H      2.210422364578     5.686343430460     1.014390192598
H      0.745007273626     6.558756707908    -0.812393049360
H     -1.194898330453     5.185686544861    -1.600019080990
H     -1.637692787739     2.959473820060    -0.586329511017
C     -0.299815066641     1.709077824714     1.352316927016
H     -1.365135846603     1.486383022055     1.306122293050
H      0.155098900260     0.675181306995    -0.492992740776
C      0.467714689970     0.737531118336     1.926785572376
H     -0.035074512251    -0.112052933958     2.369257522282
C      1.937180694527     0.669317440017     1.940948642776
O      2.494658700428    -0.140439487717     2.728354392609
O      2.659250926003     1.243341500548     0.876426816726
C      4.081454858463     1.066801872911     0.915574487994
H      4.536985616049     1.568964379100     0.035719317884
H      4.509662959984     1.518786774343     1.838475250810
H      4.346460562593    -0.014177709104     0.875391365309
Pd    -0.274576834514     0.340208933974    -1.898763038315
C     -1.878939770964    -1.269327290191    -0.262915980474
O     -2.086041493863    -0.182684420792    -0.981989897413
O     -0.832610864472    -1.999858380204    -0.313851040937
C     -2.985810164824    -1.600474662562     0.760949958188
H     -2.536514129152    -2.191179149930     1.562726402308
C     -4.135712171757    -2.369524362844     0.148651599470
H     -4.878325035298    -2.606906889574     0.938508869549
H     -4.628753275786    -1.745436626136    -0.624588012619
H     -3.770261009956    -3.314264278430    -0.303615242271
N     -3.515300403943    -0.360519501348     1.328682125332
C     -3.130914128599     0.053451414222     2.569115539565
O     -2.328685288906    -0.563899777807     3.309076726525
C     -3.717224405368     1.320782595889     3.058922699774
H     -4.249410235700     1.095001447158     3.997656908462
H     -2.884308634321     2.017684543617     3.253359308833
H     -4.414992466269     1.745534994249     2.316721262167
N      1.737177312321     0.200417786858    -2.247459429103
C      2.520069389872     1.105688641124    -2.912221152132
C      3.870763355146     0.871405736285    -3.058831575711
C      4.446834285341    -0.263159790456    -2.531179072317
C      3.647759287534    -1.139617611036    -1.845806812243
C      2.270886949252    -0.867227472311    -1.702981236837
H      2.073382977963     1.996961678345    -3.337837674930
H      4.478601493963     1.585034298325    -3.591587699797
H      5.511249754163    -0.452022986294    -2.644525982731
H      4.040293974256    -2.028501216553    -1.390666781718
O      1.630360791571    -1.767327714243    -0.992372480074
H      0.604938672834    -1.735218142718    -0.801811264652

