# STO-3G

title

0 1
C     -1.041856485333     3.812384282456     0.507649810140
C     -1.151212603174     4.592495004895     1.687138734704
C     -2.395391930282     5.075536687980     2.129751239623
C     -3.563151699039     4.791611864077     1.396151451230
C     -3.468828667165     4.029704698994     0.212354671406
C     -2.225669249539     3.547588227732    -0.232510715397
H     -2.379939879669     1.309902675666     0.719746321006
H     -0.251923445059     4.818285223153     2.258693191070
H     -2.453288430365     5.672112105927     3.037334106957
H     -4.527482561422     5.164640737979     1.732451608730
H     -4.359536745453     3.815897490898    -0.373182575781
H     -2.189819545337     2.987625155652    -1.162692309308
C      0.293053512975     3.317046663870     0.113114575468
H      1.107837976812     3.665424015316     0.749464583023
H      0.562289882472    -0.160090372342    -0.210718366833
C      0.562949449939     2.473611407603    -0.916197758594
H     -0.223060498338     2.053571976934    -1.527786945991
C      1.905560268262     1.992576032752    -1.261932347231
O      1.985238715333     0.935244353082    -1.951751859657
O      3.024300573236     2.470741050861    -0.555322828543
C      4.278981680529     1.841688982026    -0.851094510005
H      5.081245255910     2.329734673995    -0.256246250171
H      4.256826954290     0.763366516183    -0.576679637728
H      4.533239742986     1.950821939746    -1.929640224097
Pd     0.662154259270    -1.026385177196    -1.433894035555
C     -2.175870791073     0.091434341011    -1.687058300331
O     -1.018791023861    -0.238922600070    -2.246323330248
O     -2.977966694886     0.926842304500    -2.182138683582
C     -2.486628767444    -0.563177047671    -0.292684757541
H     -1.930326151253    -1.496451893603    -0.185857887997
C     -3.961458716829    -0.819361803841    -0.078418147773
H     -4.117460396154    -1.292620723384     0.912881058377
H     -4.508235555589     0.147412985245    -0.100542305541
H     -4.356119929622    -1.485132485119    -0.872746402294
N     -2.036584695495     0.352716845873     0.771634874941
C     -1.108082530885     0.005377617069     1.665160865992
O     -0.528744783867    -1.125542424908     1.680910554557
C     -0.725904902845     0.997560425526     2.686781848749
H     -0.833964149379     0.525413087746     3.677227835139
H      0.319459683006     1.294329800108     2.503942286254
H     -1.380197676201     1.887197612222     2.628400621957
N      2.420531855351    -1.742281965669    -0.663851380939
C      3.392920469156    -1.935851282716    -1.610716180193
C      4.668332073719    -2.290185806589    -1.230125843801
C      4.978001933691    -2.461826773891     0.099159437961
C      3.990641545761    -2.256392549519     1.025086163514
C      2.693936122814    -1.886410288644     0.605585372398
H      3.157063966588    -1.806119915131    -2.660886297288
H      5.425349212972    -2.442064095700    -1.983156165797
H      5.980898306349    -2.747449715470     0.406414255167
H      4.173544927198    -2.367138293014     2.076629392314
O      1.875415201452    -1.699810523799     1.610486828264
H      0.863499182106    -1.464526523540     1.539980375656

