# STO-3G

title

0 1
C     -0.775010328175    -2.169388152214    -1.495248290810
C      0.155232143583    -2.411523623485    -2.527057698961
C     -0.287864294773    -2.861410334406    -3.786754318089
C     -1.661039113948    -3.079514816845    -4.016812999353
C     -2.589789482077    -2.858015065794    -2.980329876254
C     -2.146923383481    -2.405585761767    -1.721693882441
H     -1.352530430674    -1.632587950075     1.689902880262
H      1.215113884698    -2.273847464952    -2.332866757372
H      0.433510073380    -3.053341916156    -4.578441918885
H     -2.002038073830    -3.432776087956    -4.987851677906
H     -3.648626246237    -3.045301631157    -3.147165327404
H     -2.856886006973    -2.252521002153    -0.912918370500
C      0.480364362794     2.444007888210     0.731338457612
H      2.569420285516     0.940697545477     1.391894915510
H      0.887293196073     2.906869664345     1.641175446544
C      0.436271819784     3.158769172764    -0.416884005489
H      0.822532583450     4.172499539720    -0.435759812772
C     -0.105904703444     2.679895436895    -1.696068930481
O     -0.088567586365     3.454520498930    -2.687386566526
O     -0.584525483017     1.360822642894    -1.804240905464
C     -1.182980561762     1.028856797221    -3.067469710901
H     -1.566360801093    -0.011407439249    -3.045455292043
H     -2.045912682025     1.698283487472    -3.286280237183
H     -0.438690445316     1.102925532584    -3.892489040870
Pd     0.025368019520     0.554358794262     1.123016896430
C      1.050250949859    -1.945943935977     2.430456345655
O     -0.037169462899    -1.471996012553     1.807806498158
O      1.139222276245    -3.021322168790     3.040359712064
C      2.264358610585    -0.954376310593     2.373654496572
H      3.161023502003    -1.567360491898     2.226294488363
C      2.390544188105    -0.171534572624     3.664104150613
H      3.296922837298     0.467661193060     3.632702847896
H      1.494620449036     0.465820022448     3.806046724717
H      2.479682554259    -0.870208877655     4.522871225022
N      2.127446808919     0.032768809199     1.244925484895
C      2.383635982506    -0.526160172705    -0.042943394730
O      2.414279306789    -1.742574664050    -0.249452726222
C      2.633576400835     0.411731977573    -1.155589788867
H      1.848405907562     0.259696379816    -1.915119478365
H      2.638482868421     1.453844169730    -0.799503511829
H      3.620498458508     0.164498485582    -1.585604799329
N     -2.046973453828     0.827068153382     1.082126307940
C     -2.629556258817     2.040023726995     0.809101926332
C     -3.989421200620     2.137442982372     0.602419161774
C     -4.791255456780     1.025058439033     0.684959351272
C     -4.204527674036    -0.171914789318     0.980763235236
C     -2.807221481836    -0.244519465020     1.186780216183
H     -2.038124609131     2.941649352460     0.762731076217
H     -4.426539383844     3.098459547522     0.386264345222
H     -5.864726081727     1.097233134269     0.531789046229
H     -4.773612214469    -1.074212904677     1.085631524219
O     -2.395213766550    -1.448853513266     1.479186887446
H     -0.435399110943    -1.811876683330    -0.525751180592

