# STO-3G

title

0 1
C     -0.052816085130     3.380222314477     0.441848578861
C      1.275039713014     4.030612399191     0.295131791269
C      1.812874650991     4.200266530825    -0.945168562953
C      1.023427938808     3.873620327420    -2.148102769670
C     -0.416792094022     3.844738353304    -2.025910254800
C     -0.905829430528     3.363028888534    -0.787061077939
H     -3.646538665888     0.396354460061     1.605613933318
H      1.828444871539     4.298572886908     1.194311530282
H      2.816547518874     4.599384217250    -1.070645705218
H      1.456188597959     4.098691458167    -3.119883771793
H     -1.080127358679     4.032665970838    -2.863719986537
H     -1.961188703455     3.123284924281    -0.681157473640
C     -0.741364999990     3.287365265919     1.822629012415
H     -0.274550940432     3.823342219989     2.641516483096
H     -1.826311761059     3.308023872831     1.820878788154
C     -0.085679542681     2.029725675436     1.310734912252
H     -0.735369023628     1.299054562394     0.871132184301
C      1.128003542955     1.398474879596     1.876838197813
O      1.813405214955     2.009379353810     2.743230524803
O      1.632657911510     0.262004826916     1.219188976062
C      2.761542123791    -0.365160992696     1.839694897219
H      3.054867221053    -1.258869710744     1.248766771807
H      3.629998846771     0.330172140459     1.878821586746
H      2.503715751922    -0.700293354022     2.870494830541
Pd     0.199301220285     1.771348017453    -1.922245342509
C     -2.254899024551     0.260213606491    -0.542153793406
O     -3.084414219106     1.207715197070    -0.509651127597
O     -1.273263878798     0.134742841337    -1.425631254943
C     -2.287190913991    -0.816622630342     0.587385671426
H     -1.273262365633    -1.167198287334     0.802829620117
C     -3.156726835788    -2.000703631319     0.230678034866
H     -3.135060918317    -2.735032701785     1.062428279019
H     -4.202370653655    -1.657756820832     0.087094960368
H     -2.786200386108    -2.485731687742    -0.695625835854
N     -2.835764974970    -0.187252723776     1.788406430363
C     -2.103371166766    -0.049749618403     2.925855355621
O     -0.927692883025    -0.463527306141     3.076654032331
C     -2.748804195780     0.669293915271     4.045871522740
H     -2.747580263915    -0.007539119667     4.915998858131
H     -2.139084914157     1.563688338079     4.254347476287
H     -3.783122734207     0.955268938444     3.786105571247
N      1.780507405937     0.354892409828    -2.176017237862
C      3.002008366034     0.857260332662    -2.537062317789
C      4.118303888651     0.047515638006    -2.527854551440
C      4.020795712567    -1.274272486600    -2.154568521007
C      2.791693623787    -1.756817195606    -1.794328389725
C      1.672204604996    -0.896018828605    -1.807717278292
H      3.092055765998     1.894529793454    -2.835849092074
H      5.074371392275     0.455460395376    -2.813233593186
H      4.896899510783    -1.917441180279    -2.144750854332
H      2.646260713434    -2.773656040987    -1.487621156032
O      0.552572491671    -1.471379002453    -1.430968207173
H     -0.307835440096    -0.838545124767    -1.392022982306

