# STO-3G

title

0 1
C      2.627065891018    -0.663674422779     3.874978181034
C      3.222394203583     0.584565424222     3.602545143779
C      4.213134202656     1.092222586433     4.467660927060
C      4.611987328404     0.358175037605     5.602270804153
C      4.017484906094    -0.889505222065     5.867848952848
C      3.020840632180    -1.401877010405     5.008868094516
H      0.065481131093    -0.169932298411     0.117195059239
H      2.930987168284     1.155565430738     2.723345342840
H      4.671804883474     2.054653013976     4.250340179699
H      5.377790117758     0.751632481133     6.266373163697
H      4.325445916847    -1.467945948693     6.736411213897
H      2.582780623839    -2.374654712365     5.223540060683
C     -0.363380768454    -1.690963578250     4.026924016542
H     -1.099967989305    -2.252842934599     3.459218387876
H      0.109232501909    -2.197155611916     4.862046960313
C     -0.232028213878    -0.304903306290     3.868810850487
H      0.411982553455     0.240436388367     4.540055789073
C     -1.119910583696     0.550259702317     3.059725189504
O     -2.261476333662     0.121663167427     2.741621479515
O     -0.830631797782     1.925507487758     3.032067093681
C     -1.673287430807     2.723998836493     2.191457561637
H     -1.365464872538     3.788390669463     2.268593023119
H     -1.568203264680     2.413915996707     1.127948128071
H     -2.739581106849     2.646875128161     2.503393877962
Pd     1.297264537823    -1.428213233387     2.609360465723
C      0.277564740370    -2.785133303963     0.012981961017
O     -0.041407168624    -2.347288923266     1.154916003646
O      1.503625742755    -3.265996184678    -0.253821536191
C     -0.740092539904    -2.746400645465    -1.137842203988
H     -1.087837849231    -3.780064540919    -1.283969073686
C     -0.117637336035    -2.283352247202    -2.443598321603
H     -0.888458832136    -2.290417960849    -3.242113896821
H      0.260859341319    -1.247201791752    -2.323854870728
H      0.714997396399    -2.952935988915    -2.741912438061
N     -1.904435736699    -1.914551086330    -0.875010618286
C     -1.918415702405    -0.734063446988    -0.365983076823
O     -0.919846950841     0.096774083853     0.061209908028
C     -3.254108454447    -0.132335005565    -0.270322096835
H     -3.697825567108    -0.128306009145    -1.279218414839
H     -3.844201636039    -0.767100492900     0.411836575580
H     -3.182808220042     0.889603231860     0.135461344627
N      1.748829355778     0.095560973659    -0.098408212474
C      1.857990405699     1.126812238594    -0.997388446103
C      3.084523183838     1.435930883614    -1.555275221414
C      4.210050819751     0.719367822110    -1.213818458227
C      4.082302390222    -0.298737873711    -0.306697715451
C      2.811051250219    -0.576006242877     0.247119605794
H      0.976900203799     1.692849854269    -1.277645291185
H      3.153293175249     2.244455534217    -2.263833912175
H      5.176133431409     0.959375393237    -1.649590702392
H      4.918825630810    -0.884829913329     0.015605532770
O      2.793846509948    -1.576993130159     1.124810628364
H      2.199153311235    -2.836534322965     0.378739448744

