# STO-3G

title

0 1
C     -0.466527081930     3.801350952229     0.074110868377
C      0.144808544608     4.899184539671     0.726323713194
C      0.195384325695     6.163520330795     0.111455246866
C     -0.369918190626     6.363457257211    -1.161761874399
C     -0.998101426445     5.284799044311    -1.815554267754
C     -1.050980755133     4.025283476957    -1.199679604619
H     -4.127162746837    -0.937178975409     0.570029337269
H      0.569841718954     4.791804275020     1.719773260745
H      0.672443525712     6.992083026164     0.629747878414
H     -0.326182487933     7.341860583842    -1.633969093729
H     -1.441058539821     5.425788811943    -2.798504732771
H     -1.531059626080     3.193888385822    -1.713026068324
C     -0.610590084380     2.441398031007     0.654677383941
H     -1.558222178284     1.968768524467     0.388107317518
H      1.954836941982     1.516739064340    -0.332510437907
C      0.096177733372     1.760040169809     1.671264845856
H     -0.387374725660     0.904164626055     2.125269295064
C      1.295932334360     2.226991102334     2.384455889859
O      2.207691136207     2.794440571271     1.726710348735
O      1.562975171521     1.684160136934     3.651767195770
C      2.805560677795     2.072296490409     4.254748309577
H      2.891880133603     1.596596960269     5.255627073722
H      3.668707396061     1.735726489888     3.636635808949
H      2.853054136691     3.176724838589     4.388940630526
Pd     0.584533725614     0.861432386513    -0.329510870931
C     -1.332277965635    -1.511368969880    -0.372997500991
O     -0.346527938021    -2.251389344711    -0.835872466671
O     -1.375684579835    -0.243290849672    -0.459895536272
C     -2.451873680532    -2.253939727718     0.389737550284
H     -1.947604753986    -2.878500941347     1.135814448738
C     -3.294646684078    -3.138300046890    -0.503080669401
H     -4.057928846703    -3.659567192061     0.111164628796
H     -3.811155916681    -2.516297604936    -1.262291029508
H     -2.657801645572    -3.892751385219    -1.009385471674
N     -3.321194240501    -1.298215319744     1.064247457908
C     -2.843549375199    -0.597381040911     2.128767865095
O     -1.712173196090    -0.768223166557     2.639827291558
C     -3.749643244336     0.430407084191     2.680456548108
H     -4.681554050094    -0.071855186584     2.989418856483
H     -3.256962156361     0.907039261432     3.545715241624
H     -3.946746242640     1.175722395237     1.890433394388
N      3.447711892249     0.270472146358    -1.707021497829
C      4.738532805331     0.194118419010    -2.155972912560
C      5.186948345371    -0.961293476917    -2.770099668237
C      4.341004424339    -2.038051884024    -2.937485624080
C      3.052156982242    -1.930623744320    -2.479279608393
C      2.649539291184    -0.724346115182    -1.857819052308
H      5.405555668526     1.038516664646    -2.026349843180
H      6.204712329424    -1.014348092588    -3.120359241755
H      4.686919579829    -2.947538135536    -3.421703086050
H      2.346859577978    -2.729484003951    -2.586060718849
O      1.377466454938    -0.696748885905    -1.443890742850
H      0.529922274485    -1.642168853264    -1.214193342996

