# STO-3G

title

0 1
C     -0.134661596800    -2.053608436148     1.207633655974
C     -0.615642862125    -1.870644155573     2.535696253381
C     -1.643636767912    -2.678172571351     3.027668679291
C     -2.218254386199    -3.681948043589     2.202924831799
C     -1.752593841800    -3.879720332605     0.897813847572
C     -0.695105473733    -3.078521510873     0.388535381618
H      0.768483776435    -1.534371928658     0.906164713189
H     -0.164237504136    -1.108306120748     3.164863547142
H     -1.999801896004    -2.547384873553     4.046342946166
H     -3.008976664331    -4.314932738569     2.598959241654
H     -2.167848942544    -4.669035656522     0.277123532959
H     -0.234947141513    -3.337211266107    -0.562363307783
C     -2.766939346068    -0.465423643529     0.755597628745
H      1.331307451009     0.139474692348    -0.264876470664
H     -3.311672179955    -1.349778695553     1.090287895954
C     -3.000745652983     0.773316791286     1.237255410575
H     -3.770523909745     0.935401878156     1.983294047355
C     -2.241101669422     1.972902416386     0.857221817574
O     -2.616473756597     3.094668955886     1.287008444337
O     -1.045329210857     1.829722852338     0.130461172221
C     -0.455267203641     3.050097720857    -0.341831263207
H      0.457367920291     2.814285225709    -0.932936958791
H     -1.159023705508     3.597360677146    -1.009591499063
H     -0.164933787890     3.708194808910     0.508169693186
Pd    -1.339796124727    -0.885221113860    -0.542765010671
C      1.595059621205    -1.772859618585    -1.745248974516
O      0.481426340643    -1.010751468752    -1.758194792405
O      1.635005569822    -2.950421601117    -2.152358401165
C      2.830098451630    -1.041758552318    -1.130687964874
H      3.424291978247    -0.608888271797    -1.949981945689
C      3.714189259588    -1.990647061771    -0.344847579686
H      4.622117262281    -1.462296373556     0.010996350268
H      3.159695676815    -2.378562094022     0.532795931016
H      4.033611723131    -2.839058636659    -0.985008990928
N      2.341121539297     0.014221513799    -0.229312569732
C      3.145253451756     0.983629223477     0.287960932803
O      4.375104986770     1.084742657524     0.077984001287
C      2.501446638824     1.952465355542     1.204404654308
H      2.594184126887     2.951747596616     0.749027500201
H      1.444451867214     1.686979534568     1.371105885798
H      3.050336138896     1.919640222970     2.161297384159
N     -2.296963651524     0.288544447715    -2.013254149560
C     -3.665588817952     0.358290454732    -2.066417160088
C     -4.284323607311     1.241723939144    -2.925651858853
C     -3.540607211311     2.055235600614    -3.749332987709
C     -2.177122236576     1.950025736431    -3.703882107277
C     -1.574931079503     1.028841543288    -2.819585730073
H     -4.270658505694    -0.280454135799    -1.435102021463
H     -5.360755604323     1.293687163353    -2.949711911218
H     -4.023741293314     2.753933573350    -4.427408541963
H     -1.541053802600     2.538827782539    -4.334650421618
O     -0.265227181916     1.005498660497    -2.889353053444
H      0.191822381940     0.181376911813    -2.403439506021

