# STO-3G

title

0 1
C      1.904792455224    -0.763622859459    -1.451540122148
C      2.122896299297    -2.094518150999    -1.854572300982
C      3.257272384707    -2.406193255904    -2.633509301734
C      4.171097257150    -1.402158917545    -3.003005317478
C      3.952354305717    -0.077368453907    -2.581736379593
C      2.818015985632     0.248664507404    -1.809809430565
H     -0.473301079129    -0.952778246097    -1.487650410510
H      1.453775516389    -2.883643708994    -1.530900795398
H      3.424467000585    -3.437353422137    -2.936523979517
H      5.046154713705    -1.649142783237    -3.599434080460
H      4.661102703405     0.706165280990    -2.842006901241
H      2.676225192749     1.277037922131    -1.490458197998
C      2.117145551479     0.507225817336     1.400870980656
H      2.969553126964    -0.079572101906     1.077255012195
H      2.024370695377     1.522113429556     1.027772168224
C      1.204440073922     0.042114182584     2.299682922963
H      0.387226888109     0.677273188379     2.602875603562
C      1.257260914198    -1.277816566785     2.948520319345
O      2.333029181652    -1.935326738233     2.954805145908
O      0.128047995995    -1.715929433032     3.669046586673
C      0.221587221744    -3.039171687616     4.216272247200
H     -0.722158468226    -3.291601756981     4.744114173572
H      0.380326216559    -3.790740961856     3.407994600234
H      1.059153237024    -3.106718653239     4.947327299099
Pd     0.241785999076    -0.378815913020    -0.295366929697
C     -0.845251144726    -2.883309287133     0.705605903643
O      0.322128068436    -2.293014667014     0.369080558201
O     -0.950346716195    -4.108998849855     0.902523790277
C     -2.065300407897    -1.930435744148     0.892472002556
H     -2.553686611437    -2.306206844629     1.802327120691
C     -3.060264884131    -2.038463641113    -0.246301542274
H     -3.944580387642    -1.404067928784    -0.034660511586
H     -2.607113927265    -1.697429854537    -1.195104184788
H     -3.395114314188    -3.091205679355    -0.361003689425
N     -1.606947656414    -0.528918682871     0.977845107774
C     -2.077722211640     0.348124125582     1.822885735527
O     -1.630530878645     1.575246402153     1.964422812960
C     -3.165003859977     0.013136687603     2.768521896755
H     -4.039418291698    -0.344238419260     2.201164296971
H     -2.785122730508    -0.745581679713     3.474654363270
H     -3.448390856098     0.917283741978     3.340397404218
N      0.054604459965     1.436139055963    -1.305525968602
C      0.025728187017     1.441230687750    -2.677569509205
C      0.042996146327     2.632796379140    -3.369160625360
C      0.088465766919     3.833026664376    -2.699529852297
C      0.100460691437     3.814277659259    -1.331995214428
C      0.066740215782     2.581490421820    -0.638921576239
H      0.008589976331     0.508476607682    -3.228466727501
H      0.034287521042     2.619794929276    -4.446963305262
H      0.110098490494     4.773740256813    -3.243446707340
H      0.125688244834     4.715224323343    -0.752030933167
O      0.062237335049     2.659662076885     0.643180667153
H     -0.837396011905     1.990435288870     1.354407266031

