# STO-3G

title

0 1
C      1.243943017691     2.664183058523    -1.166088631798
C      2.627639783982     2.951621970173    -1.199368055505
C      3.139475565195     3.895671568520    -2.116254716659
C      2.275481595762     4.562739725361    -3.004801833749
C      0.896117930194     4.276887099757    -2.977112819566
C      0.383067215644     3.330508636010    -2.066367938628
H      0.672307935273    -1.436446293542    -0.222299327118
H      3.318957319716     2.445055980466    -0.526966519720
H      4.207023590190     4.106554665043    -2.132967056635
H      2.669124647276     5.291361972893    -3.709575830213
H      0.219210169421     4.781280228517    -3.664063587146
H     -0.683560048679     3.108032925120    -2.073715576198
C      1.075713684422     2.515877148571     1.874548114343
H      1.158205517358     1.854099784386     2.729766994299
H      1.990337418658     2.972327382449     1.513313381147
C     -0.162719570170     2.992994034174     1.443597602897
H     -0.200289983580     3.770810867337     0.695843247600
C     -1.448314595257     2.726997001783     2.115445906136
O     -2.471007360404     3.335679311246     1.707481554277
O     -1.477397778534     1.956685783774     3.294217267353
C     -2.772289812232     1.779701216866     3.886722470821
H     -2.680420995887     1.153502753278     4.799470739080
H     -3.209873848393     2.760573781033     4.182053088444
H     -3.464075334268     1.268162869939     3.178021694245
Pd     0.538215760859     1.261906295540     0.106468152916
C      1.540445204418    -2.258628210809     1.374999298180
O      1.203248238659    -2.235997142510     0.037677138830
O      2.155379558986    -3.203918319109     1.872955644961
C      1.156931932250    -0.941006714533     2.114857826322
H      1.993658350961    -0.258444370691     1.902565504704
C      1.077351900715    -1.083647122446     3.625054667008
H      0.572495347815    -0.200311813255     4.068358670295
H      0.540312301090    -2.010702092816     3.905770150869
H      2.102032097323    -1.157439394146     4.046113665169
N     -0.028212794544    -0.293686091051     1.519282583640
C     -1.303374527837    -0.607281235284     1.612676971002
O     -2.217083612103    -0.026876668234     0.888087109805
C     -1.802843147030    -1.629737638596     2.552630941499
H     -1.262954644400    -2.573470791778     2.364173942764
H     -1.663833701888    -1.254663997602     3.577909952407
H     -2.882191869752    -1.789446738569     2.371126668288
N      0.321875106675     0.048725533647    -1.625018848669
C      1.384234656675    -0.249369123004    -2.437931256918
C      1.183307861727    -0.506981780635    -3.777903833952
C     -0.083920711536    -0.486450122924    -4.314272174278
C     -1.136933906089    -0.187423617630    -3.492162860764
C     -0.904705962170     0.086902346897    -2.125819333678
H      2.385233349269    -0.281775139916    -2.023995165255
H      2.028371963789    -0.742649267022    -4.402655091021
H     -0.244489815250    -0.698838806116    -5.367706849740
H     -2.145314427269    -0.147071329979    -3.851046489900
O     -1.956479721603     0.400199918547    -1.443578555376
H     -2.027677286555     0.292943206795    -0.249733146460

