# STO-3G

title

0 1
C      0.256957105127     4.196836853913     0.269246409411
C      1.457150231645     4.868916430354    -0.051974695905
C      1.470816483659     5.902295422734    -1.005655730456
C      0.278618725705     6.281070577332    -1.654558241249
C     -0.923088662763     5.620254575112    -1.338526865861
C     -0.934805572118     4.586233876148    -0.381592271417
H      0.144428679967    -1.275543894770    -0.763622450085
H      2.382675479279     4.585014057620     0.447086870924
H      2.402500869204     6.412722222553    -1.239373607729
H      0.286589236308     7.081171534886    -2.391189005073
H     -1.849453402363     5.908835265114    -1.830526845078
H     -1.866947594856     4.084407177031    -0.132006367444
C      0.255069774349     3.065088028806     1.285192773747
H      0.895600677839     3.329471023951     2.142655421816
H     -0.751783142209     2.907366093811     1.683651756740
C      0.788921111095     1.753516182754     0.693559643569
H      1.650005580785     1.893258748449     0.046182090373
C      0.973835925759     0.579264529084     1.572390770653
O      0.058258409798     0.273583886615     2.385482719628
O      2.226794669036    -0.053733192611     1.600857283684
C      2.327437561624    -1.222441777468     2.424507910432
H      3.364411686372    -1.617912135284     2.373515115831
H      2.095626332605    -0.986029198868     3.487234166749
H      1.645196859729    -2.020667493868     2.059893836203
Pd    -0.578521307238     1.263174423706    -0.754286226460
C     -1.049515816676    -2.431975496665     0.911764466867
O     -0.724758672056    -1.932256018536    -0.282230979281
O     -0.470821062442    -3.339710295911     1.538946884959
C     -2.365352038852    -1.764849034306     1.495059047359
H     -2.214560845407    -1.627331621981     2.570466852115
C     -3.586622800805    -2.621461970055     1.259442667477
H     -4.482957765206    -2.119349782820     1.677226771626
H     -3.732720203854    -2.772945487290     0.169518864773
H     -3.458730049206    -3.608101774451     1.752180023815
N     -2.543733412634    -0.496719015653     0.773498979427
C     -2.738877098566     0.751463146229     1.189705563301
O     -2.379768213278     1.776619101224     0.499826285208
C     -3.409188402561     0.970347028131     2.480332186507
H     -2.746520170635     0.599386377635     3.281292256390
H     -3.577088890275     2.054454636922     2.611363984695
H     -4.373643283593     0.433484735659     2.473418646950
N      2.437556938329     0.927985149758    -2.048600340726
C      3.687489112149     1.003446585273    -2.601745562332
C      4.401487811870    -0.153669674944    -2.864322248236
C      3.860276718004    -1.389773426144    -2.572041304268
C      2.604174588448    -1.435439476547    -2.026786824813
C      1.924831942971    -0.218551944111    -1.784426888986
H      4.117524751878     1.972096927898    -2.827632399547
H      5.385750376808    -0.083557078150    -3.295497131191
H      4.414416597591    -2.302884140366    -2.770862981842
H      2.115398078509    -2.354167159187    -1.771072169436
O      0.694356387332    -0.326128397773    -1.252221447726
H     -2.041293496030    -0.572453378058    -0.121169181723

