# STO-3G

title

0 1
C     -1.118188447573    -1.977241273302     1.818370672238
C     -1.597083784822    -1.235994959992     2.918206958466
C     -1.498476649749    -1.759690525807     4.222557281896
C     -0.924481123435    -3.030306540326     4.431750898157
C     -0.451643401371    -3.777651111224     3.334729805817
C     -0.548234836383    -3.250314977786     2.030534770579
H     -1.179535677640    -1.580868704506     0.811548443850
H     -2.039797280877    -0.254233087651     2.761479146888
H     -1.865826141951    -1.183539896191     5.069230352610
H     -0.849805849857    -3.434279546057     5.439016835645
H     -0.015315390855    -4.761331928555     3.494064572092
H     -0.199197018454    -3.828122834009     1.176912208070
C     -2.806422985618    -0.613087824998    -1.183763327619
H      1.348201197522    -1.768882207503     1.084944023833
H     -3.429924354166    -1.495905143466    -1.330497442882
C     -2.981442032336     0.295784721845    -0.202172987616
H     -3.792259572817     0.198126589704     0.511016922440
C     -2.062294225124     1.418230757116     0.029522468051
O     -2.298626153381     2.219095019417     0.971418809918
O     -0.878615582801     1.497467986621    -0.728058077238
C     -0.044445894197     2.636680934119    -0.470304709834
H      0.877465070148     2.572424988002    -1.090104472152
H     -0.573216605414     3.581511250679    -0.727435888725
H      0.273186321521     2.669208483431     0.596134520105
Pd    -1.215195024098    -0.548149936852    -2.342915649331
C      1.158449362624    -1.242425142917    -1.602686615036
O      0.048670783380    -1.785007164609    -1.164671365230
O      1.157961128640    -0.573796495432    -2.717648986420
C      2.399942748637    -1.324543588030    -0.703226541727
H      3.092299179989    -0.535125885750    -1.006474151886
C      3.089718159734    -2.668331935768    -0.776745412764
H      3.983792061240    -2.656901292932    -0.119502859424
H      2.397866657874    -3.459044586591    -0.419929849534
H      3.403845139686    -2.883997628268    -1.818493880203
N      1.989448017807    -1.092118984932     0.680894171631
C      2.065135079389     0.165803152965     1.205791721342
O      2.535488572182     1.161382710039     0.605490506309
C      1.572526380584     0.335243057153     2.590029290883
H      2.384749937265     0.792353645347     3.178396910451
H      0.696668702935     1.002360669039     2.553315820985
H      1.293248342091    -0.639481457983     3.029829296692
N     -1.933233710713     0.999617432714    -3.479077029144
C     -3.257402397562     1.242811997822    -3.731702921744
C     -3.631474984636     2.374974397665    -4.424733433569
C     -2.683047074546     3.269675716866    -4.868677132380
C     -1.365427459649     3.002027610659    -4.607596523589
C     -1.018636209174     1.836227389879    -3.894141958178
H     -4.013499447361     0.544244397663    -3.394074051799
H     -4.676027385888     2.559847325128    -4.616697174891
H     -2.972654017516     4.164649130501    -5.413255129106
H     -0.579260390695     3.658763242470    -4.924535262742
O      0.282350360013     1.705371356378    -3.703815536740
H      0.635092632334     0.866779530009    -3.255471879520

