# STO-3G

title

0 1
C      3.178902326315    -1.586059654749     0.322270452462
C      3.198713597269    -1.496452573613     1.742180269984
C      4.228555227170    -0.761335887571     2.388013320196
C      5.224250934995    -0.135013540461     1.626246630517
C      5.208879684781    -0.228861567726     0.210524094035
C      4.199007203242    -0.950190302864    -0.436954920449
H      2.457913109591    -2.239150741449    -0.155163728232
H      2.485538946379    -2.075075365457     2.322456653519
H      4.250508492397    -0.710136413952     3.473063361701
H      6.023435187191     0.413926415346     2.118624034270
H      5.990301511155     0.251757638944    -0.373458323162
H      4.199279311269    -1.037259769697    -1.521910864821
C      0.853767477333    -1.703983362311    -2.399719590451
H      1.808894050683    -2.140709442561    -2.116547453250
H     -0.003123774115    -2.040015999249    -1.825343771185
C      0.740986720786    -0.831466607218    -3.430773521624
H     -0.224216704332    -0.423247828746    -3.695836508372
C      1.865566972837    -0.360170642660    -4.259681904555
O      3.039837594569    -0.742434905332    -4.001440016555
O      1.597101844831     0.510816795921    -5.329900581585
C      2.740229757757     0.966762697424    -6.066730882235
H      2.407027038668     1.646810265154    -6.879975621350
H      3.436751244544     1.530534932345    -5.405173334270
H      3.280853438342     0.109872134412    -6.529234392332
Pd     1.296297470404    -0.119141839412     0.873553759721
C     -1.017964130886    -1.694032627164     0.517198090483
O     -1.675168401501    -2.659230385363     0.083970680394
O      0.238299410817    -1.820763992324     1.004341076970
C     -1.583246998314    -0.235104077447     0.531900963402
H     -2.471152659944    -0.279948864495     1.179873587766
C     -2.018703282598     0.219307385805    -0.846580821961
H     -2.557485780575     1.184460876977    -0.775146617460
H     -1.132610543318     0.367666682139    -1.490971390072
H     -2.694526519650    -0.531576335246    -1.307806806152
N     -0.545874541538     0.686070554950     1.022371451831
C     -0.685471701832     1.730646555528     1.867592842819
O      0.276574401196     2.331155434465     2.428419446936
C     -2.056697325728     2.227048780994     2.147227600853
H     -1.975052397370     3.124658496565     2.787255445324
H     -2.530776410607     2.502727650438     1.192839630001
H     -2.621399655698     1.449377024038     2.686904536752
N      2.294519612822     1.645596304048     0.487114421670
C      2.891716983205     2.358780946948     1.492291742206
C      3.542209743665     3.543789555382     1.200775184701
C      3.566319049469     4.028200200676    -0.089273676500
C      2.944424100356     3.298967106865    -1.070228859832
C      2.309965925362     2.090052653422    -0.725715358799
H      2.877328335738     1.980798985405     2.507953606469
H      4.011830756682     4.096390628173     1.996796848711
H      4.064624168854     4.965187065891    -0.322240332892
H      2.923609772568     3.616822881051    -2.092513634986
O      1.738827856116     1.454539986467    -1.752724455327
H      1.336736088232     0.588279060446    -1.485326458567

