# STO-3G

title

0 1
C     -1.408415198307    -2.536025540282    -0.434455521674
C     -2.440917242031    -2.439814431059     0.536380415937
C     -2.562703510585    -3.432938629574     1.535735843051
C     -1.675457390616    -4.522534126845     1.554006215922
C     -0.636150902071    -4.618121333407     0.594977140251
C     -0.501116481338    -3.630236313065    -0.390926124155
H     -1.420052529320    -1.877687932678    -1.300046818573
H     -3.159577113310    -1.629058679951     0.462143708640
H     -3.359358069284    -3.361223210396     2.271249583836
H     -1.788552845762    -5.301185842107     2.305049326583
H      0.042595119512    -5.467403060133     0.612678655766
H      0.276812793987    -3.708378808345    -1.146159001671
C     -0.889246671605    -0.263932551315    -3.505220286066
H     -1.319439795959    -0.020042169531    -2.538165586325
H     -1.529691171955    -0.072285073064    -4.359991633798
C      0.356353518963    -0.774193633940    -3.652352655728
H      0.747922656064    -1.013882880702    -4.629812446236
C      1.275732041288    -1.039533770717    -2.538162621288
O      0.923191463523    -0.748025344294    -1.364131772937
O      2.511013803420    -1.654060966200    -2.802276581431
C      3.372174121578    -1.840341196989    -1.669706693123
H      4.307052787133    -2.344581178299    -1.995731811716
H      3.648907951651    -0.859712088178    -1.219638871577
H      2.884864940891    -2.478652087559    -0.897171697837
Pd    -0.596814619046    -0.393797256161     0.516860366844
C     -2.045731925219     1.673298138792    -0.841260799138
O     -2.839370921260     2.232250892489    -1.618644511543
O     -2.164358455368     0.373022043270    -0.485033357214
C     -0.824185703118     2.423779352232    -0.220469375030
H     -1.229892910550     3.371288849631     0.155546893171
C      0.221484597516     2.749716247046    -1.263955417295
H      1.057818889460     3.308275770504    -0.795351799826
H      0.618707833570     1.815695983945    -1.707528679113
H     -0.222434566240     3.371914272979    -2.069450342895
N     -0.192953450878     1.599873715481     0.838986528276
C     -0.180406032899     1.928148915262     2.178491188075
O     -0.151304578892     1.089400694323     3.109907462020
C     -0.069815486155     3.365250418181     2.530688894439
H      0.729513140884     3.815581766756     1.917544957948
H     -1.045597913572     3.849287788132     2.368239978111
H      0.196991222171     3.443433310284     3.601288300234
N      1.071091390139    -1.063494750358     1.553651268125
C      0.993297492739    -2.160872768757     2.363793820738
C      2.143033571601    -2.689305076642     2.919596265626
C      3.365116494761    -2.093755714238     2.693640043236
C      3.405780150373    -0.965172069645     1.916401309497
C      2.204824727673    -0.456327374709     1.377475030323
H      0.034729854284    -2.618764180371     2.560739528511
H      2.072819488154    -3.560960412086     3.548242009972
H      4.270687230072    -2.496093920097     3.139336334188
H      4.312982347150    -0.424790510448     1.740054053920
O      2.338525674705     0.682563495033     0.710378452857
H      1.408679707844     1.094982884322     0.547443500408

