# STO-3G

title

0 1
C     -1.750674644770    -2.597237565060    -0.463521176198
C     -2.744826674046    -2.445456258816     0.541506409851
C     -2.853126245588    -3.411212667131     1.576904269702
C     -2.000160021643    -4.522796347535     1.593281971529
C     -1.006272594748    -4.675586786723     0.591049135812
C     -0.878038681320    -3.720363704782    -0.424319099324
H     -1.756178563565    -1.945776162176    -1.331366921505
H     -3.479954022236    -1.651182434194     0.449971736489
H     -3.624486217905    -3.297905991562     2.334154460577
H     -2.105112600601    -5.278709569012     2.368176567666
H     -0.355966170275    -5.547439598452     0.601777359425
H     -0.133977013179    -3.849780500711    -1.206647520441
C     -0.250613966041    -0.100757934012    -2.827674667285
H     -0.149557712351     0.642582289155    -3.614038768287
H     -1.260675595873    -0.257239794717    -2.461701111535
C      0.807963223005    -0.754913621326    -2.296648941029
H      0.661511318970    -1.467995810071    -1.496559175305
C      2.213482821935    -0.552103081923    -2.685933365337
O      2.512928525468     0.331291912563    -3.534908752851
O      3.192945761691    -1.393466476582    -2.128437831842
C      4.547564209477    -1.111071189509    -2.504638067277
H      5.226894848790    -1.832508633920    -2.002316165645
H      4.682435726299    -1.213694467090    -3.605420133733
H      4.837002243109    -0.082566988984    -2.190189813663
Pd    -1.051401621773    -0.516920262903     0.690520637695
C     -2.287571687756     1.612552152190    -0.734006278369
O     -2.923474154857     2.150683737382    -1.656738912102
O     -2.563378944044     0.365954319963    -0.285537312224
C     -1.135030443587     2.353774976000     0.024210015722
H     -1.648618075578     3.168552582903     0.553151347142
C     -0.121692598153     2.963946529521    -0.921912156858
H      0.629722666351     3.547019049424    -0.354110720431
H      0.405536359478     2.173138356410    -1.490044785558
H     -0.628296752963     3.643239053771    -1.639717678805
N     -0.434758305535     1.427896680568     0.956657408338
C     -0.209519868631     1.718469745112     2.291662152952
O     -0.151337541543     0.849796724726     3.193303452556
C      0.111818489579     3.121139124329     2.655191944155
H      0.939244009422     3.467350360420     2.014286187972
H     -0.787384442548     3.746246034745     2.548650603607
H      0.438353494152     3.142582035789     3.712037307663
N      0.691302725594    -1.304877626154     1.478411859882
C      0.674174311388    -2.352531936753     2.357714549043
C      1.859565049275    -2.952581177359     2.737207976146
C      3.064975890717    -2.482564161486     2.260939595373
C      3.055852633136    -1.390891360142     1.432167214442
C      1.824436582957    -0.799983003729     1.087766820868
H     -0.267777219119    -2.721597678807     2.739641946592
H      1.835173683298    -3.789791530933     3.414394702160
H      4.000279799904    -2.951568465342     2.553937948439
H      3.955353748013    -0.952916737593     1.050619323866
O      1.909540433010     0.301531033868     0.354191644873
H      1.020963350905     0.828822482073     0.407785475912

