# STO-3G

title

0 1
C     -0.627434348477     3.737610250573     1.092974824075
C     -0.085777174458     5.030404085278     1.237442280893
C     -0.677466058287     5.950979080675     2.125379173439
C     -1.816359839398     5.580062086729     2.867551263302
C     -2.362653773918     4.289138460738     2.718822245307
C     -1.768391908335     3.368890907890     1.832989750427
H     -0.169815537589     3.017838872063     0.422557693983
H      0.794686376187     5.318628866609     0.665805306502
H     -0.256192972683     6.947953446697     2.234837094928
H     -2.275675806885     6.290793811458     3.551241148260
H     -3.246373476201     4.004373382891     3.286041795192
H     -2.180854366528     2.372020486765     1.703728420516
C      2.343803612304     0.799547569532    -1.151507389922
H      2.618712340636    -0.139866008303    -0.679019042693
H      2.100864035610     0.742275608073    -2.208420187966
C      2.313893976059     1.980200230869    -0.490403655794
H      2.030639023954     2.884562805405    -1.012709875413
C      2.621278143861     2.150748434070     0.938191606147
O      2.742669477919     1.139119884960     1.682724698318
O      2.673242150633     3.453178829955     1.461471500951
C      2.736814276056     3.554874055855     2.890526824954
H      2.766036446756     4.627217080169     3.180794250942
H      1.833614450928     3.099477894653     3.357040541507
H      3.653341067139     3.060168343847     3.284550663862
Pd    -0.245652690921    -0.868307931098    -1.259337892805
C      1.433312055258    -3.068321117002    -0.650191317357
O      2.345368235031    -3.902255287635    -0.751957560990
O      0.836264307871    -2.507179973501    -1.744002761710
C      0.897473910738    -2.614624798654     0.775603536385
H      1.773626947992    -2.423211745336     1.410812278680
C      0.045600257930    -3.691395142873     1.409430154987
H     -0.285832871018    -3.365051117476     2.415679016596
H     -0.846812836189    -3.878184284070     0.777104728661
H      0.630312149514    -4.630128342442     1.507369398427
N      0.076245986741    -1.437394324757     0.578903862627
C     -0.295323626760    -0.350302511222     1.200480782863
O     -0.858760728239     0.586112671285     0.453576121353
C     -0.120088811442    -0.166717916713     2.645757125386
H     -0.711541097945    -0.939174158512     3.163393111882
H      0.953866382243    -0.275437212448     2.874189162174
H     -0.466898946637     0.844472862276     2.923280092234
N     -0.488808436659     0.047435102007    -3.085194208103
C     -0.350720770905    -0.617641376073    -4.273060884279
C     -0.448966358072     0.080193119767    -5.460590989592
C     -0.685862034624     1.439211098533    -5.457969366306
C     -0.815817083332     2.075832195431    -4.249735142331
C     -0.709431097055     1.327275811607    -3.061650297565
H     -0.164032560754    -1.685665228886    -4.278549227236
H     -0.338659941741    -0.446838197568    -6.394510593640
H     -0.764326190639     1.992248978081    -6.390315885334
H     -0.997153573340     3.129888431881    -4.176348119591
O     -0.826573750893     2.045710255213    -1.950018333729
H     -0.793106523408     1.558179658649    -1.076184785415

