# STO-3G

title

0 1
C     -0.641592022196     3.660183860733     1.090115666971
C      0.047184302210     4.864366551757     1.336875710826
C     -0.547762390212     5.872319870187     2.121840945214
C     -1.835469358757     5.677977655922     2.659720441910
C     -2.526422111943     4.474729404183     2.411526022612
C     -1.929622202071     3.466919061749     1.628713159450
H     -0.189956294966     2.873256859957     0.494997086367
H      1.042183913071     5.021431246484     0.924325675983
H     -0.012617794811     6.800471158641     2.310290101985
H     -2.296146890628     6.456717732468     3.263618705521
H     -3.522546775044     4.324984387300     2.822508161077
H     -2.450964381119     2.534314950026     1.430029250064
C      2.183515725114     1.049058979308    -1.294770140009
H      2.484891014866     0.033133150908    -1.056700392055
H      1.841608266084     1.212747348838    -2.313052776703
C      2.230116056180     2.069879126254    -0.408142270174
H      1.921422233546     3.061162212964    -0.711277845512
C      2.659821708796     1.946548905715     0.993789013821
O      2.794115473969     0.804640596014     1.513695452845
O      2.761886775663     3.115240412539     1.766679903532
C      3.023525045413     2.927319734767     3.164034857010
H      3.085061448584     3.919029341755     3.662195783531
H      2.201134975638     2.351366043641     3.645268353873
H      3.991265069131     2.398328697377     3.319208303970
Pd    -0.297105651244    -0.843060177788    -1.261774208697
C      1.648298623120    -2.780480785364    -0.557482674978
O      2.658564860289    -3.497143212468    -0.620555764882
O      1.008882115606    -2.329463325975    -1.678641308298
C      1.033857970143    -2.356417167902     0.845688663225
H      1.864567956317    -2.005792319322     1.474332256759
C      0.352027649018    -3.524368263497     1.522049929011
H     -0.036011220910    -3.210787999865     2.511970797127
H     -0.494324818161    -3.872697988716     0.894904756712
H      1.073606546621    -4.356399625550     1.662381076732
N      0.042278717607    -1.327249120003     0.599395595343
C     -0.464205586892    -0.270605049300     1.176519944588
O     -1.123536851076     0.565131642179     0.389048959246
C     -0.331300917644    -0.012751781044     2.615126002623
H     -0.834445169407    -0.831682054003     3.154695149109
H      0.743720863043     0.012086557219     2.859182202336
H     -0.802899428684     0.957958228919     2.851203950509
N     -0.575230738512     0.019846295861    -3.108205954620
C     -0.341345290956    -0.647849106216    -4.279438598975
C     -0.456073756256     0.022547533535    -5.481122256030
C     -0.805016769705     1.356768582984    -5.509310820757
C     -1.028220154898     1.997343035899    -4.316941364766
C     -0.901076236352     1.277518666022    -3.113081117342
H     -0.066491838688    -1.696511160256    -4.260563586580
H     -0.270016331351    -0.506508351069    -6.401792509480
H     -0.896634110422     1.888245069297    -6.452934107256
H     -1.297022114326     3.034060096354    -4.267535266633
O     -1.110703584507     2.003044922824    -2.019847551272
H     -1.068476099886     1.538017553425    -1.134188425747

