# STO-3G

title

0 1
C      0.431777432202     0.477567708161     2.912851949552
C      1.545746853867    -0.387944469976     2.725939066654
C      1.505970392380    -1.709699287914     3.247937853731
C      0.382150739038    -2.150785504534     3.957791407252
C     -0.722141167541    -1.282240537791     4.157643222139
C     -0.699014607337     0.018602782857     3.642122296348
H      0.503328706524     1.515260038092     2.607418723613
H      2.457497006279     0.000374133117     2.280963249089
H      2.363935580290    -2.362364349527     3.111947542590
H      0.358804303781    -3.155428000676     4.373076153116
H     -1.585706925623    -1.626400299896     4.722215157560
H     -1.542644219349     0.683840274874     3.809884058380
C     -0.504386236692     3.328711022022     0.713936482640
H     -0.478401391715     3.850858781350    -0.239452963405
H      0.456023054461     2.958469569414     1.057140821897
C     -1.643903559005     3.152867130870     1.425297778193
H     -1.619553454406     2.632328747532     2.374316564514
C     -2.979381428165     3.616242219638     1.010005275066
O     -3.137148906964     4.145547938693    -0.123473536457
O     -4.060713882478     3.427577551688     1.888290454185
C     -5.342172350969     3.851233187715     1.402422571517
H     -6.113994026529     3.652950587836     2.176863382342
H     -5.341531293140     4.943206127402     1.183089286660
H     -5.620694576728     3.289115458077     0.482012457461
Pd     0.490177184925    -0.190111078671     0.500896386926
C      1.855400869050     1.807777787322    -0.973551437678
O      2.393531054315     2.910136853801    -1.179930811997
O      1.942990087049     1.164191415101     0.216601385670
C      1.028051494945     1.054944123245    -2.067189729684
H      1.729204166046     0.912734229898    -2.902637247832
C     -0.145571496121     1.875391358622    -2.564956042629
H     -0.602512380150     1.387144514655    -3.447845549967
H     -0.920831831946     1.954305427756    -1.779330557697
H      0.189346974109     2.892953172158    -2.857776556114
N      0.518776457427    -0.210157733660    -1.512129101597
C      0.467483971807    -1.422094517729    -2.108418064874
O      0.251078661837    -2.509847495586    -1.499762033024
C      0.655521603735    -1.488242102224    -3.579773324336
H      0.498465365558    -2.534083613780    -3.901400118727
H     -0.097874134870    -0.843655335820    -4.058124767608
H      1.685508871181    -1.185133157343    -3.828903722944
N     -1.180452359400    -1.383212783864     0.719641256928
C     -1.075573279600    -2.732938704518     0.927348883331
C     -2.219858583460    -3.495136597444     1.076221092999
C     -3.465095869183    -2.911408925315     0.984140136854
C     -3.535731748283    -1.560331244502     0.758837744623
C     -2.342055819003    -0.825883013391     0.626272850021
H     -0.098492260508    -3.195567934160     1.005164830833
H     -2.128427375254    -4.555166724225     1.242612348191
H     -4.367717752664    -3.507489217379     1.086933958054
H     -4.469622541986    -1.042837760253     0.674324431667
O     -2.517725097906     0.482654921972     0.420035801078
H     -1.657609979292     0.969143581017     0.338290779935

