# STO-3G

title

0 1
C     -0.104228783995     2.805215515072    -0.853255247865
C      0.990918678155     3.350557060892    -1.579760257428
C      1.032494070567     3.256418105607    -2.974365767205
C     -0.015229422577     2.608792965875    -3.682851343326
C     -1.110514434055     2.083466141680    -2.989708284037
C     -1.170585124740     2.188855233941    -1.569987671227
H     -0.228669528544     2.949187050189     0.218065062444
H      1.791414548737     3.852403466048    -1.042263156455
H      1.866613974646     3.688854941896    -3.522859393842
H      0.025361692691     2.550718993439    -4.768088867631
H     -1.937920548812     1.629803241230    -3.529250204262
H     -2.087663906238     1.941439857845    -1.045911354273
C      1.979344590917     0.262257710394     2.495613953225
H      2.827091513683     0.899605631924     2.738960241889
H      2.162980719406    -0.569260320178     1.817785098565
C      0.749310857320     0.419623773658     3.038836891448
H     -0.039665407177    -0.262834392160     2.761957729477
C      0.366077791629     1.465390374551     3.999139201268
O     -0.759249663634     1.383965406837     4.562630771405
O      1.286122302591     2.474577653201     4.339615124009
C      0.804413527668     3.476608577522     5.245509936565
H      1.607442059320     4.221636325560     5.431383738321
H     -0.072212547315     4.010261115935     4.812071157427
H      0.517079510266     3.023163534548     6.221211833178
Pd    -0.061039148071     0.328681979862    -0.443736392737
C     -0.822815097137    -2.197030491878     0.668148833952
O     -0.768309690885    -3.353406608828     1.118674818693
O      0.245235499222    -1.594268528538     0.081499643370
C     -2.111209516583    -1.316191706986     0.709107098825
H     -2.677215158261    -1.625388713758     1.597122435125
C     -2.973271851752    -1.539557270605    -0.515076423639
H     -3.887096535016    -0.914444889904    -0.446161918215
H     -2.411430310605    -1.251248662209    -1.426858301624
H     -3.267859252802    -2.607872199982    -0.585493007743
N     -1.697237197037     0.096172551647     0.716514454212
C     -2.095737767645     1.075227612971     1.548755958939
O     -1.547088633386     2.220973169380     1.599031036561
C     -3.242600981366     0.815539684765     2.451035844621
H     -4.105361292842     0.489332116441     1.847861632476
H     -2.936836202714     0.060706564025     3.194715232779
H     -3.487889341243     1.753086351581     2.984348505214
N      1.694596821765     0.233042364546    -1.542316367866
C      1.643042414434    -0.458240234903    -2.722321907836
C      2.780858045519    -0.587185288145    -3.494565130790
C      3.972855529740    -0.033004064769    -3.078464441531
C      3.994929400289     0.638513287042    -1.883198040543
C      2.809133270515     0.738036366954    -1.129585010493
H      0.705677514113    -0.888497001777    -3.055062150848
H      2.732711430841    -1.128132563695    -4.425161292928
H      4.872921423448    -0.131322472386    -3.679485297829
H      4.888661639076     1.084714540740    -1.495601100978
O      2.947822877587     1.393190781034     0.021939697241
H      2.165427391280     1.318258325697     0.627142779133

