# STO-3G

title

0 1
C      0.129672114920     4.106914469275    -0.664555195059
C      1.010071702566     4.934783045155    -1.405251136459
C      0.561441274937     5.647445235293    -2.528664820832
C     -0.785853215012     5.548218885505    -2.926591404894
C     -1.670949006986     4.729332550078    -2.195824596790
C     -1.223049018017     4.011612529573    -1.076457708875
H     -2.579178448886    -1.116880396857     1.614455280309
H      2.052302048456     5.013840724761    -1.098038789747
H      1.252449251444     6.274289381351    -3.086997686969
H     -1.141114269297     6.098087731597    -3.795162661468
H     -2.709538668495     4.642776061135    -2.505127031327
H     -1.917133873766     3.364953397243    -0.550532215365
C      0.668454383230     3.436414267657     0.536593181250
H      2.431818714055     1.478659695578     0.884219869283
H      1.658101896688     3.786009107988     0.827486831454
C     -0.038192186111     2.621700071690     1.442048684312
H     -1.072824295090     2.376612537421     1.247951647401
C      0.417112505868     2.363781066491     2.816931207747
O      1.654999345240     2.390813936063     3.054818084103
O     -0.486732987492     1.824531770635     3.745240409458
C      0.030126662388     1.603831612996     5.065554481502
H     -0.776761657965     1.197854580040     5.713500190851
H      0.865408081236     0.867393275926     5.047885505676
H      0.386529803375     2.558108435913     5.515929079687
Pd     1.129758558680     1.254953060134     0.109880392211
C     -1.710756806928     0.417157924186    -0.516357704919
O     -0.709229305091     1.047566833665    -1.135803506317
O     -2.757491409423     0.982797433677    -0.112904560805
C     -1.466099272044    -1.090109250235    -0.182845128182
H     -0.439764723815    -1.366038854236    -0.432768691766
C     -2.427051564749    -2.007647685429    -0.904688828499
H     -2.219131455414    -3.059663235475    -0.619889369516
H     -3.468193901463    -1.756784983138    -0.612093252328
H     -2.312112399535    -1.894581508820    -2.002325038378
N     -1.644607857274    -1.279474639922     1.257534568175
C     -0.590146474265    -1.313808461957     2.113649014469
O      0.617975353222    -1.214092223059     1.779996881269
C     -0.940871150038    -1.508419716431     3.534595754378
H     -1.489754368882    -2.461886637002     3.616297831156
H     -0.012897511602    -1.540015853806     4.129478961922
H     -1.581978638858    -0.666085110461     3.848689355317
N      2.057651772741    -0.344993010002    -0.864711561896
C      2.996857191421    -1.092957533329    -0.204480285116
C      3.689892878273    -2.077595304137    -0.878093084693
C      3.429667929255    -2.335039669074    -2.206483519227
C      2.458326206301    -1.598869425541    -2.832484855883
C      1.764914768619    -0.606430590162    -2.109838099856
H      3.213803502852    -0.895850702080     0.839036164920
H      4.434403437080    -2.654700144825    -0.353940830451
H      3.970562057853    -3.112403074759    -2.739907487206
H      2.188413005707    -1.765578750003    -3.856705866005
O      0.804381128007    -0.006185422441    -2.782030126334
H      0.114308686428     0.510320300675    -2.168782793080

