# STO-3G

title

0 1
C      0.294833689286     4.063979650937    -0.094669987135
C      0.882514002060     5.332906405674    -0.317616132465
C      0.306969161661     6.244947653266    -1.217791249961
C     -0.860839082132     5.893723689911    -1.921529845600
C     -1.438906929697     4.622288349988    -1.726254537778
C     -0.868519709336     3.710766569811    -0.824585697653
H     -2.115874505646     0.626370582264     0.615068508988
H      1.787555558319     5.607033580183     0.222573070987
H      0.765808517914     7.218393588128    -1.371719973196
H     -1.307483069006     6.594988038892    -2.622282196563
H     -2.324949457009     4.339067880631    -2.288870481199
H     -1.284140263162     2.711713203516    -0.732523306376
C      0.924563090880     3.173813256975     0.903826308560
H      2.868939108196     1.648257542132     0.339657153714
H      1.910292544367     3.489324764064     1.240323737603
C      0.286414600049     2.137504803069     1.591045418218
H     -0.752721772443     1.928774990108     1.417186105153
C      0.888354325357     1.393511027606     2.701215949042
O      2.106639876117     1.083328504399     2.584767098776
O      0.044082873198     0.696378981436     3.574503454695
C      0.652455808983    -0.316017168918     4.387758671452
H     -0.130008209326    -0.795970460013     5.016960071676
H      1.106396680518    -1.112544308311     3.755845348868
H      1.425016149952     0.121030555267     5.059464774625
Pd     1.457657063166     1.164967259016    -0.115435613599
C     -0.780140728923    -0.770553030763    -0.910261236215
O     -0.481045600854     0.522914910464    -0.718710197406
O     -0.354452015475    -1.482644171041    -1.853225481715
C     -1.733426455640    -1.367246707438     0.169708561225
H     -1.162864235880    -2.088490352866     0.769953016779
C     -2.922083485970    -2.082194641630    -0.436803166766
H     -3.537318680692    -2.530383458701     0.370882925475
H     -3.541545003759    -1.351718072979    -0.995616858779
H     -2.581583705471    -2.886522026203    -1.121128179039
N     -2.232034515703    -0.293425487935     1.027458125531
C     -2.545336487120    -0.492535436406     2.333621457617
O     -2.426906926562    -1.587606871082     2.937361800959
C     -3.134380275494     0.661016648643     3.053158769262
H     -3.203641750184     1.538971712624     2.388917099390
H     -4.140253038843     0.356509752116     3.384501492941
H     -2.497969563726     0.881834697246     3.925784064161
N      2.432279699587    -0.112099536788    -1.401788393605
C      2.032126130501    -0.226487404471    -2.708502977144
C      2.711535510368    -1.077677456351    -3.557346038439
C      3.758689405387    -1.843701144291    -3.092171571894
C      4.123266265625    -1.715873104027    -1.775552782286
C      3.415947057267    -0.822308270448    -0.951017952343
H      1.204558889564     0.368810193001    -3.078330902167
H      2.389763438739    -1.166437939893    -4.582300166057
H      4.280375851439    -2.532270675940    -3.751726267821
H      4.923583118365    -2.288111044414    -1.349739506282
O      3.845877236172    -0.778278020247     0.308364071250
H      3.349919608746    -0.087364261756     0.829029180028

