# STO-3G

title

0 1
C      0.506053130119     3.889022061600     0.176925477989
C      1.389031102428     4.716819681744    -0.559330567220
C      0.896118147569     5.690796884890    -1.441908514394
C     -0.494641520766     5.862032993256    -1.591506642031
C     -1.380303607124     5.059290359344    -0.845246957947
C     -0.891096207975     4.079516482552     0.035493820774
H     -2.289624904209     1.051348143358    -0.094594848225
H      2.463886497460     4.586026846769    -0.442685723421
H      1.586471938876     6.316042044582    -2.003003955944
H     -0.882485679376     6.619291705037    -2.268991046884
H     -2.453962829432     5.205317398563    -0.936626044277
H     -1.597530121446     3.506999897174     0.632784620618
C      1.087447699952     2.890464422451     1.102759352410
H      2.971111668126     1.366980207978     0.385289063642
H      2.096605250692     3.110075666708     1.442893723378
C      0.388576458933     1.835408375409     1.688982286419
H     -0.655911275372     1.704007060734     1.473384841295
C      0.915382256312     0.975175437867     2.752212451118
O      2.160021255539     0.770237797418     2.764641784798
O      0.031911930606     0.072476619797     3.368770830638
C      0.632807932329    -0.915711360496     4.217505530271
H     -0.162248286700    -1.551983694179     4.662686569018
H      1.315315514765    -1.576044687950     3.634821951040
H      1.198470386478    -0.435368837658     5.047995497139
Pd     1.568226327735     0.937163359110    -0.070649983842
C     -0.797764291457    -0.931870927742    -0.013693117717
O     -0.395115979904     0.154954945095    -0.592602664821
O     -0.049220845653    -1.915791889432     0.340460733176
C     -2.305300172368    -0.973254067900     0.352070840376
H     -2.417022666650    -1.612894201781     1.231575270465
C     -3.159257160933    -1.522539148228    -0.767927971235
H     -4.221011743541    -1.538695961682    -0.447070399817
H     -3.069466098028    -0.860080450882    -1.654694212349
H     -2.836674504905    -2.550484286883    -1.032513182140
N     -2.701327240103     0.417834407940     0.593153659938
C     -3.128088326671     1.028059981170     1.726458022509
O     -3.085213458791     2.278059213869     1.876516899192
C     -3.662708173560     0.181229132222     2.813138489228
H     -2.832756171950    -0.415952857400     3.224615571463
H     -4.065302292007     0.847490767667     3.596549408462
H     -4.467256236676    -0.450230564654     2.399263950600
N      2.575307202276    -0.133867334458    -1.510002058553
C      3.169932931463     0.567109802270    -2.524195854746
C      4.063836798285    -0.061494839971    -3.363671212647
C      4.349949013011    -1.399566997563    -3.205833891580
C      3.721626073360    -2.084205442172    -2.199108302459
C      2.806334198295    -1.413220464276    -1.358479859921
H      2.951648870748     1.621378301928    -2.652617635712
H      4.533767814872     0.498908698831    -4.155962641704
H      5.049912723235    -1.901752548456    -3.868683801611
H      3.887990177918    -3.130691446162    -2.035422838785
O      2.243361059937    -2.175769151551    -0.459938851003
H      1.263190094030    -1.957500080847    -0.043902639167

