# STO-3G

title

0 1
C     -0.133117713749     3.652498633398    -0.423974125818
C      0.372910523194     4.339011298263    -1.554211861259
C     -0.497500894416     4.885919997947    -2.509349578482
C     -1.891362448596     4.771764523630    -2.339426270516
C     -2.405647368698     4.116468855603    -1.203855595035
C     -1.534317751981     3.563237677502    -0.252177551890
H     -1.082372349126    -0.267657293114     1.219926741811
H      1.449483051258     4.425406553333    -1.690353054680
H     -0.095786877818     5.396252020881    -3.380986739539
H     -2.567699461744     5.193022428515    -3.079050993111
H     -3.480782976765     4.043935035198    -1.061057733958
H     -1.941022572726     3.094139425192     0.639628927019
C      0.817075280396     3.110135360258     0.571554522013
H      3.017444155147     1.823564928180     0.180188844044
H      1.754253557222     3.655128645200     0.659747670446
C      0.514920576617     2.126182462384     1.519815046122
H     -0.460135677820     1.664065187879     1.512430854237
C      1.335147422021     1.828799148584     2.700443615643
O      2.581534488965     1.996917526864     2.610271882592
O      0.783246884789     1.034704641602     3.717713226435
C      1.671787228370     0.662082211005     4.780415664813
H      1.116040919484     0.053971313594     5.527115183974
H      2.516091998757     0.046343504573     4.395295845270
H      2.073063127025     1.563320295414     5.297213219459
Pd     1.697505011116     1.118615909680    -0.161621784055
C     -1.239695167841    -0.016050281042    -1.127621050647
O     -0.093208243882    -0.083025612222    -0.396755012745
O     -1.303137238990     0.335079007900    -2.316911031849
C     -2.475411997837    -0.473159798348    -0.290294052370
H     -2.734915102502    -1.498307991494    -0.598193664268
C     -3.684508729438     0.411319201489    -0.513158881750
H     -4.570806532213    -0.023599824644    -0.007974215571
H     -3.493225877541     1.414366059056    -0.089647196163
H     -3.903469153214     0.501398561543    -1.597225085674
N     -2.084554890637    -0.429930231894     1.123757690773
C     -2.808597568914    -0.955460533062     2.145065138405
O     -3.969105856746    -1.418876765377     2.057865218252
C     -2.131160237176    -0.925972324374     3.460474982965
H     -1.894753887913     0.125299069605     3.695932850366
H     -2.814886939704    -1.350230456393     4.215725971846
H     -1.208622354074    -1.526564823241     3.388141495173
N      2.840998237922    -0.230993223852    -1.263111672230
C      3.978382352164     0.176583131349    -1.908838555412
C      4.838091749295    -0.754175400240    -2.451719242227
C      4.556769490679    -2.100353430119    -2.368338610631
C      3.403828073153    -2.483496531266    -1.736678670314
C      2.544542124817    -1.503471575584    -1.198378612911
H      4.210406767455     1.232719154992    -1.982353568297
H      5.733484380036    -0.424181324345    -2.953897147292
H      5.227939249969    -2.838721781335    -2.799632732733
H      3.115836794872    -3.513181453909    -1.652602150985
O      1.452664834535    -1.978004934041    -0.643124231002
H      0.713329505405    -1.245710825302    -0.467368824171

