# STO-3G

title

0 1
C      0.674295450615     4.100237578827     0.425647100886
C      1.690007105372     5.074922130251     0.290008311219
C      1.442603901507     6.286231549498    -0.379594617311
C      0.171186783426     6.535614185185    -0.928810090272
C     -0.844874342374     5.564810869169    -0.803142348602
C     -0.603200897694     4.355412535891    -0.132863506592
H     -1.190226875050    -0.069614700479    -0.317689193073
H      2.675994956854     4.885861870470     0.713000093880
H      2.233141902002     7.027321140263    -0.470146571791
H     -0.026792237815     7.470376088841    -1.448152360157
H     -1.827387574813     5.750431503585    -1.230468291016
H     -1.395933276555     3.613679825274    -0.072370653486
C      0.992365346059     2.866135362078     1.192642128357
H      1.400132184531     2.131167739658    -0.913770542479
H      2.018041216958     2.808883512191     1.559303584066
C      0.047600013265     1.963875156507     1.685880374753
H     -0.988655703134     2.102339576001     1.426036031440
C      0.293216098326     1.050396506669     2.811825205007
O     -0.685752827934     0.459690611321     3.342577815868
O      1.619591775995     0.740362883306     3.163073353179
C      1.780288874029    -0.281925024343     4.157203908162
H      2.862432595087    -0.440208783374     4.353534328755
H      1.291592542156     0.012809435323     5.113383501278
H      1.351341186260    -1.248589127658     3.805844630563
Pd     0.986895750578     0.903034310829    -0.124973158151
C     -0.293124666089    -1.912549359680     1.332747605760
O      0.609511473067    -1.065167620403     0.816298381063
O     -0.001587425909    -2.913777999560     2.019438564159
C     -1.788825549004    -1.612017320917     0.989804192262
H     -2.325783146162    -1.652576813653     1.944045847310
C     -2.361996641274    -2.674135662566     0.075355885049
H     -3.437702458405    -2.472059179894    -0.103741875242
H     -1.829414310392    -2.647972519883    -0.897529819268
H     -2.252791610231    -3.679770935844     0.532974916287
N     -1.944994632001    -0.315410417794     0.324012812627
C     -2.825505816712     0.686526110072     0.543996063383
O     -2.724884976421     1.813211996471    -0.015958927145
C     -3.928073962701     0.452565964979     1.499819698291
H     -3.489202082226     0.311448783366     2.502853826569
H     -4.577499692198     1.345865766408     1.503298105790
H     -4.500203146093    -0.431474243781     1.171783317445
N      1.708801033517    -0.150529477212    -1.758653853435
C      1.571548672695     0.334093331599    -3.032176074830
C      2.288193566256    -0.229581843226    -4.066170205076
C      3.133387359326    -1.293256037321    -3.836696959993
C      3.235660325222    -1.778280174085    -2.559787944699
C      2.483302461155    -1.184525489017    -1.524832944451
H      0.910813421578     1.171893777260    -3.224579289766
H      2.179595900535     0.164141372948    -5.064199982424
H      3.697477333366    -1.742508015622    -4.650047250585
H      3.859716145719    -2.615895391730    -2.316989153905
O      2.621055209969    -1.744556196376    -0.350276010548
H      1.827227679059    -1.502775475765     0.341693253574

