# STO-3G

title

0 1
C     -0.060428852446     3.299521274878     0.392105770249
C      0.280229879890     3.929574606811    -0.831019769572
C     -0.670223949379     4.678364518744    -1.542061599227
C     -1.973878766993     4.830803255124    -1.026503358843
C     -2.312712176167     4.229774804980     0.201098679912
C     -1.366838537750     3.467042282958     0.908685160732
H     -1.357482651253     0.406889062867     1.075584697144
H      1.288878571256     3.821889581136    -1.226146109013
H     -0.398422794815     5.148059125510    -2.484127184945
H     -2.709912382624     5.420311879307    -1.568178856317
H     -3.309993677823     4.358715339082     0.615166002003
H     -1.643300548717     3.025477695414     1.862686899605
C      0.992381405492     2.574453049104     1.142567046878
H      2.917074223646     1.208292993009     0.277273292130
H      1.979429835774     3.023151656204     1.054346332594
C      0.795844138840     1.571339395496     2.097713585013
H     -0.199088067665     1.215002594280     2.325134445655
C      1.820631607802     1.155750542909     3.068206548997
O      1.525079291191     0.295799593792     3.935169648051
O      3.167916504865     1.432687492673     2.764053489513
C      4.131781506078     0.940121230618     3.707138991677
H      5.153713207684     1.234950754877     3.384723169406
H      3.950899791190     1.370351641406     4.719020704312
H      4.094391350837    -0.171875955523     3.771190688100
Pd     1.549923758189     0.544764435922     0.154416399382
C     -1.266981487337    -0.939899290204    -0.860630454050
O     -0.256374903888    -0.775295759181     0.025520108494
O     -1.215184084436    -1.651257677348    -1.881993673376
C     -2.564822738783    -0.163494567918    -0.476775089235
H     -3.394951974412    -0.880049427312    -0.514404675568
C     -2.833265978730     0.964470051070    -1.452657863940
H     -3.777717910464     1.479517694304    -1.191081488213
H     -2.006846335688     1.703681033335    -1.393928576039
H     -2.908584035988     0.571158260795    -2.487493015764
N     -2.350417703368     0.404686280357     0.848897384016
C     -3.172613213455     0.767250060552     1.851834302196
O     -2.739813456112     1.294436138009     2.915189803216
C     -4.622748767153     0.536465737897     1.684709425767
H     -4.782923352978    -0.544586872392     1.543430047590
H     -5.130152978150     0.877512319104     2.604316269200
H     -4.976113499259     1.119585072677     0.819970100145
N      2.499759534679    -0.738167639970    -1.180200764990
C      3.411652939768    -0.293640502712    -2.099559417453
C      4.227268667501    -1.191564605213    -2.754386833811
C      4.118809837872    -2.544088504331    -2.511112638927
C      3.182901047314    -2.967865849717    -1.605625405376
C      2.359950098118    -2.022905357914    -0.959385880971
H      3.506051908995     0.767778434823    -2.297744464538
H      4.947239196425    -0.832962395682    -3.472449508419
H      4.753062491326    -3.257316561485    -3.031321391023
H      3.028673834866    -4.006487965252    -1.387217960296
O      1.467995006036    -2.523415647182    -0.140859267330
H      0.662859439168    -1.840573021522     0.041179027245

