# STO-3G

title

0 1
C      0.398107310219     4.122828963151    -0.081715433420
C      1.061415258868     5.357746394595    -0.283372482949
C      0.573053043457     6.294640490204    -1.209143308783
C     -0.582144782099     6.002442633718    -1.959253486774
C     -1.235161729455     4.764844452185    -1.783919167351
C     -0.752041186573     3.828490412623    -0.857129008868
H     -2.273392393298     0.590319323763     0.577796006257
H      1.956654821257     5.585746179850     0.293438646660
H      1.089132924901     7.241557936477    -1.346700048556
H     -0.961653375448     6.722993822170    -2.679793665892
H     -2.111346193624     4.526488066199    -2.381686229598
H     -1.223718243528     2.853525589730    -0.778994925870
C      0.938872145154     3.205934993035     0.944186546636
H      2.841399634078     1.579799819505     0.466227479989
H      1.918566918480     3.481528313471     1.330167447878
C      0.228121638051     2.194347320389     1.598094274026
H     -0.806813305208     2.019068898032     1.366489460108
C      0.750542117100     1.440439186894     2.741568064459
O      1.948141575641     1.048163538027     2.665721472282
O     -0.155135804395     0.842824333282     3.627311100157
C      0.358649641921    -0.208125267441     4.457452851505
H     -0.461214848575    -0.600543253630     5.098844094356
H      0.727433760318    -1.056969012580     3.837729752340
H      1.174510299731     0.163777233800     5.117054222984
Pd     1.427813461598     1.187272193817    -0.060388980030
C     -0.817006226435    -0.615587791876    -1.064319744572
O     -0.509756898967     0.655565616342    -0.770846732073
O     -0.473060373098    -1.218380740221    -2.111696012055
C     -1.653188195755    -1.337209424405     0.036742824762
H     -0.978610422067    -2.000099809736     0.596308084755
C     -2.779585675563    -2.171166998909    -0.536193995898
H     -3.308565171092    -2.697421856121     0.285350772102
H     -3.497499734813    -1.506011110245    -1.057510706297
H     -2.380861289443    -2.922609933136    -1.248597121662
N     -2.231571266186    -0.352164571190     0.949218367808
C     -2.479234478213    -0.623010700184     2.255982447123
O     -2.190499047923    -1.698933625174     2.835777596182
C     -3.213831660189     0.432095457860     2.988616831060
H     -4.179702903918     0.582152753460     2.478345572485
H     -3.369251301584     0.093044519525     4.026791524111
H     -2.618058837722     1.358714803228     2.971471572228
N      2.388713071057    -0.122229632621    -1.327490401034
C      2.091496004738    -0.149250876852    -2.666162885598
C      2.764175478646    -1.024365381529    -3.495712464502
C      3.699931057517    -1.897494767663    -2.983929421085
C      3.963700936058    -1.852496914051    -1.638095881973
C      3.269477096386    -0.931443694530    -0.833092213599
H      1.350293010666     0.530002714441    -3.072820297001
H      2.522046702995    -1.045251274971    -4.545971723480
H      4.214077277039    -2.603870537909    -3.630462506037
H      4.675321783066    -2.508145648707    -1.176434255483
O      3.597172853300    -0.970437254359     0.456747076641
H      3.122041508564    -0.257980420401     0.966974428910

