# STO-3G

title

0 1
C      0.511606084042     4.078686710665     0.442610140155
C      1.324985872086     5.134945298090    -0.036692483100
C      0.782931986412     6.161677120687    -0.826436780919
C     -0.588631545418     6.147738629816    -1.145423856751
C     -1.407400029062     5.102524324879    -0.670136582632
C     -0.867615216414     4.074414159763     0.116050352810
H     -3.320576285072    -1.242730851997    -0.061399832609
H      2.386047258440     5.145671283167     0.210796124373
H      1.420537788348     6.964884083346    -1.187857574232
H     -1.014906446793     6.939770308596    -1.756926242760
H     -2.465208526510     5.086989790687    -0.920069713112
H     -1.511143517803     3.273119735429     0.464704190771
C      1.141837793224     3.045610379117     1.288999991963
H      2.994080481071     1.283745388566     0.627388816058
H      2.164000553307     3.266382421638     1.594173817187
C      0.477539141477     1.960133670241     1.874662938558
H     -0.578090463371     1.802917734169     1.712421874452
C      1.061675397041     1.107721541631     2.920266621259
O      2.301811590867     0.883659472674     2.846214371968
O      0.222171477841     0.201433066595     3.582878783778
C      0.858149101274    -0.705941621255     4.493763790620
H      0.083519224356    -1.345793674214     4.970469112006
H      1.572797962600    -1.372553465233     3.960371587903
H      1.390930541999    -0.151697795950     5.299317310640
Pd     1.558067752879     1.203686506862    -0.013062831002
C     -1.112356762099     0.220647697454    -1.195990472730
O     -0.226841425696     1.198891592030    -1.105954087902
O     -1.858099044510     0.012474097729    -2.190585684674
C     -1.272296125542    -0.701748103637     0.069681102578
H     -0.669199342203    -0.310740315706     0.890867916764
C     -0.869662444892    -2.135118523560    -0.203357933626
H     -1.011327586966    -2.740633995596     0.715610841359
H     -1.513115030309    -2.549914081570    -1.007566606616
H      0.191292589907    -2.184691041056    -0.520212852341
N     -2.674118727610    -0.690601224342     0.487804702507
C     -3.152525266625     0.303364482026     1.273514239972
O     -2.454012070148     1.222397713676     1.774465412348
C     -4.604426141025     0.267352314826     1.539487867987
H     -4.834917683185    -0.696603551991     2.022393684524
H     -4.861449449348     1.110574687212     2.203562843955
H     -5.131440039642     0.359830690012     0.573919602698
N      2.286390286949    -0.132146314912    -1.421455040590
C      1.907806004093    -0.070248376158    -2.739146188142
C      2.311992652262    -1.063067422388    -3.608533398335
C      3.086168106183    -2.114710161248    -3.166185662088
C      3.451638472599    -2.141899318497    -1.843654083069
C      3.021239057886    -1.109444556182    -0.991603305984
H      1.305271556985     0.755642736484    -3.100077335486
H      2.004102891965    -1.015397940667    -4.641470358379
H      3.398364316625    -2.901385113709    -3.848397722580
H      4.049715484160    -2.933364177567    -1.436031428523
O      3.409729490909    -1.235307384787     0.274254720600
H      3.132629398100    -0.426842067007     0.803547579696

