# STO-3G

title

0 1
C      0.211382959589     3.911727667204     0.684511784805
C      0.880566409648     4.871669918782    -0.113745780400
C      0.163985651493     5.858245952670    -0.809523755789
C     -1.239739278906     5.912762340536    -0.701489536457
C     -1.912735209604     4.973442165822     0.105061898873
C     -1.198454205178     3.976594168971     0.791923737080
H     -2.974665178255    -0.320151506777    -1.022123807366
H      1.965901068563     4.832085706435    -0.195181583563
H      0.693639604043     6.583256380372    -1.422955456938
H     -1.798987487489     6.682573748777    -1.228342638722
H     -2.993752101250     5.029676251972     0.208682041988
H     -1.728504754331     3.266518282224     1.420243062010
C      1.028238584259     2.924623089766     1.427218500127
H      2.982170795292     1.801303191898     0.305176624814
H      2.050970102215     3.245879859890     1.613779865783
C      0.558162917212     1.768754287043     2.054843482800
H     -0.484386479765     1.491591171663     2.006820003608
C      1.396084076131     0.917031228605     2.905269312015
O      2.608491173187     0.795651244128     2.565496353696
O      0.779055364764    -0.019255145633     3.747526981370
C      1.618373037941    -1.065361830961     4.254787430726
H      1.016140984725    -1.730489355113     4.910694748180
H      2.021808270048    -1.684473585937     3.420781865113
H      2.457221748941    -0.648447515996     4.856139139889
Pd     1.592344958137     1.088115884274     0.102746095028
C     -0.474139243223    -0.974702351818     0.415104066843
O     -0.257774347302     0.158276513091    -0.238626544654
O      0.407086477837    -1.711748442460     0.936084349966
C     -1.985563807215    -1.327571453486     0.568408337857
H     -2.175622555341    -1.369136703047     1.647063372463
C     -2.342403376017    -2.665368409739    -0.042371500722
H     -3.416969081147    -2.876979928813     0.135988505307
H     -2.159158372516    -2.633267586047    -1.135077579118
H     -1.731165007413    -3.470799195838     0.414697408055
N     -2.848251427976    -0.307648749142    -0.017567165127
C     -3.082129568927     0.853641828503     0.638916900711
O     -2.640745503626     1.137663391717     1.782159273225
C     -3.933557804821     1.827598734741    -0.075986328989
H     -4.878952528462     1.322926360741    -0.335553308913
H     -4.122101479119     2.684924960209     0.591501431863
H     -3.392883373112     2.150977598141    -0.982313129193
N      2.414493394198    -0.050727857166    -1.397707492815
C      1.667083511059    -0.385907693513    -2.496306843281
C      2.200481350635    -1.226881806225    -3.452932786435
C      3.470231244621    -1.744022657842    -3.303128475238
C      4.187046571783    -1.395726608693    -2.186404818501
C      3.603351119860    -0.538575299911    -1.235511931806
H      0.672941125554     0.025318582076    -2.628293358110
H      1.610996547432    -1.485128313529    -4.317876091915
H      3.890674390733    -2.412856832544    -4.049652345642
H      5.172980167221    -1.774238981673    -2.001725260797
O      4.364855270895    -0.282924502899    -0.178147720257
H      3.888470487756     0.340230009913     0.446743056976

