# STO-3G

title

0 1
C     -0.267227972666     3.527283734060     0.000240601728
C     -0.042887419970     3.916326044985    -1.340901919968
C     -1.078972259918     4.471270963537    -2.110364179077
C     -2.354005385481     4.669297907568    -1.543643837422
C     -2.584486740213     4.301549747796    -0.203475055016
C     -1.550413309508     3.732511011898     0.564452017356
H     -2.492640449170     1.631166886895     0.374645677173
H      0.937750692348     3.761838649921    -1.785582041733
H     -0.894182655013     4.747336464967    -3.145336333923
H     -3.152802450215     5.110437516979    -2.134795003684
H     -3.559872507188     4.467191585483     0.248108620822
H     -1.729570051108     3.473539728534     1.605168061959
C      0.855350500305     3.017771414114     0.833380993831
H      3.089941328988     1.725159533613     0.368465141561
H      1.766558090273     3.611447088584     0.777250130141
C      0.709913591428     2.073530265640     1.857706340835
H     -0.232434310126     1.560104471538     1.989879461912
C      1.678239717061     1.872665404765     2.946370143620
O      2.878041836251     2.203295979589     2.739180230701
O      1.353357191380     0.974705365275     3.974091076070
C      2.361777615443     0.764695457288     4.972185147562
H      1.974800241757     0.058787107473     5.738950212076
H      3.279022504522     0.320012966192     4.524497470105
H      2.619669247448     1.720666160875     5.481765668024
Pd     1.736576860625     1.058740185147     0.075311970648
C     -0.922242207726     0.105911390058    -1.331109359574
O     -0.138764461616     0.014915613070    -0.236346742110
O     -0.510719623685     0.248957231220    -2.501076971934
C     -2.439578220557     0.005675433964    -0.947429788849
H     -2.704824325113    -1.059987987356    -0.931624845205
C     -3.341743145821     0.700597668172    -1.942599852508
H     -4.397016562474     0.611699424281    -1.612142200363
H     -3.073438927290     1.776998564073    -1.990261871662
H     -3.229881547735     0.248000120193    -2.949150980968
N     -2.649998418193     0.623856634220     0.359907224603
C     -2.450486625435     0.079689444888     1.590236665621
O     -2.190695828486     0.782627773986     2.602038860487
C     -2.593875113839    -1.384677467358     1.736287971536
H     -3.594662648129    -1.665530454431     1.368228941261
H     -1.790059445134    -1.873530918867     1.163937499210
H     -2.498208495016    -1.639730846814     2.807349949982
N      2.793427787431    -0.483807825740    -0.852523438463
C      3.972245474649    -0.253526536054    -1.510754702883
C      4.760436986953    -1.312501767912    -1.908452009444
C      4.365179931129    -2.610115471697    -1.666245622437
C      3.171808938008    -2.815827812463    -1.026039065367
C      2.389313887855    -1.708267459105    -0.639936061573
H      4.293697526537     0.762959878009    -1.706063849622
H      5.690010372905    -1.121897088332    -2.420710646228
H      4.980381482506    -3.448876232931    -1.981926781785
H      2.798014238417    -3.799850664288    -0.822018226698
O      1.247091525827    -2.017298958236    -0.061749132248
H      0.576414925429    -1.206724542106    -0.024020256382

