# STO-3G

title

0 1
C      0.303385292565     3.693759114327     0.229839348315
C      0.680626621577     5.057779742262     0.238538077593
C     -0.023396661493     6.005427448858    -0.524382424211
C     -1.107171348430     5.599344797230    -1.326002430105
C     -1.471353553473     4.238144292900    -1.366210315021
C     -0.773501216728     3.292079830701    -0.598728547671
H     -2.446169015446     0.784361768418    -0.034091849541
H      1.519351886649     5.378065253721     0.854471067190
H      0.272947744152     7.051144660147    -0.496574789307
H     -1.650821679280     6.329081400688    -1.921106612628
H     -2.288826950038     3.916254068231    -2.007444620120
H     -1.018741592111     2.237357540214    -0.680798590878
C      1.056792902940     2.754998034863     1.095517445366
H      3.015020536450     1.392671583085     0.209918084703
H      2.034355268696     3.114002175984     1.410908349328
C      0.529798500026     1.623095225207     1.723362982904
H     -0.507136784297     1.363178604504     1.592407241853
C      1.244596142189     0.831820280860     2.732276891926
O      2.503230278473     0.801705816221     2.658393871552
O      0.537683803208    -0.186172607238     3.387266156232
C      1.316753284958    -1.095577521400     4.176098535224
H      0.638702585569    -1.835156688902     4.655440744572
H      2.038960192352    -1.654857196411     3.538810596134
H      1.865187280070    -0.555486717090     4.980538276182
Pd     1.611228520102     0.879562573475    -0.140473731852
C     -0.671181319596    -1.039899294337     0.204081565884
O     -0.381133033510     0.019325996082    -0.491473381441
O      0.155825468962    -1.986772029309     0.476027518040
C     -2.091823629404    -1.106126712912     0.803830717576
H     -2.020964798550    -1.460742078891     1.837131799215
C     -3.007016165506    -2.028031640742     0.028766256453
H     -3.996997596980    -2.065869905921     0.528956120905
H     -3.142942082488    -1.631746152164    -0.998304374146
H     -2.579318862680    -3.050903939897    -0.012912339850
N     -2.665899226673     0.237788428269     0.791414693416
C     -3.205530877026     0.808863414101     1.901967528928
O     -3.324855156828     0.250118972789     3.015720526380
C     -3.656717462496     2.206064018123     1.728922649253
H     -4.086501503215     2.559030497529     2.682329874407
H     -2.780095956943     2.816134902613     1.452204673595
H     -4.415226241212     2.225629544446     0.928058529984
N      2.554740919797    -0.137742529993    -1.656293712865
C      3.080982252184     0.582571337628    -2.694417687864
C      3.917433970909    -0.028205837570    -3.602914157016
C      4.216033733077    -1.367803668863    -3.488753723130
C      3.659774961689    -2.071742518647    -2.453740774975
C      2.802804245188    -1.419879845576    -1.539414389422
H      2.851867157193     1.637871070707    -2.790501602961
H      4.332940103915     0.547436559360    -4.414445812037
H      4.871102411604    -1.855946401048    -4.205785131744
H      3.841744478089    -3.119877317247    -2.318844563431
O      2.314141965408    -2.197979331498    -0.615874729478
H      1.371352252113    -2.004574552542    -0.080323661965

