# STO-3G

title

0 1
C     -0.255427840282     3.750156337670    -0.324894664747
C      0.518513651514     4.927045593002    -0.167398040797
C      0.283908524892     6.048562593146    -0.977448852412
C     -0.726559884101     6.015496109593    -1.961397199018
C     -1.500690661008     4.851000062560    -2.126006919033
C     -1.270801276396     3.727365090009    -1.313890355973
H     -3.930369593213    -0.947973863193     0.886576591570
H      1.297842008264     4.974924902425     0.589438016761
H      0.880449083193     6.948136373971    -0.843578940397
H     -0.906492896829     6.886199650177    -2.587971231337
H     -2.279798120060     4.816955927345    -2.883750297562
H     -1.856566792821     2.819936512935    -1.447577093491
C     -0.074970003255     2.541634139118     0.507028560232
H      2.716045824334     1.938033661780    -0.022225249181
H     -0.898637833426     1.839125425158     0.468767482558
C      0.907805375913     2.353037782567     1.481160790859
H      1.619417290640     3.128862938791     1.710332598074
C      0.959419532190     1.190172016794     2.369472481996
O      1.112721161926     0.085299738803     1.778673097357
O      1.530440664784     1.378470028852     3.636852973224
C      1.532485211194     0.217695399044     4.479294468645
H      1.961054758717     0.482717399870     5.469714367314
H      0.493779127569    -0.153797270012     4.639634521751
H      2.153645039367    -0.595311087962     4.039471779861
Pd     1.485185339732     1.125811489912    -0.412526157763
C     -1.484913164209    -0.215713170348    -0.585448357445
O     -0.202436991436    -0.223214403842    -0.944471623295
O     -2.348223754439     0.571387944415    -1.038169658433
C     -1.853891388824    -1.242434574033     0.536249120002
H     -1.002479809187    -1.315386207188     1.218951288506
C     -2.158345884578    -2.619431514729    -0.013609691645
H     -2.410112867476    -3.302974437278     0.823426285478
H     -3.027146629029    -2.559616491915    -0.700895232338
H     -1.279142146303    -3.020518902869    -0.558714399938
N     -3.016343824325    -0.775170710884     1.283987397599
C     -2.882276538018     0.221129788772     2.199215182465
O     -1.791955073126     0.742646631133     2.539507386717
C     -4.138116730353     0.691896964334     2.817751729047
H     -4.618065402808    -0.171669696888     3.307236133477
H     -3.896071516620     1.478127442275     3.553345056414
H     -4.780880256094     1.097839287026     2.017099854070
N      2.758576566192    -0.107480306730    -1.518971802135
C      3.892413624532     0.395640752505    -2.098679385877
C      4.853566476293    -0.458189428029    -2.595722878343
C      4.678209693271    -1.823177743125    -2.532891622008
C      3.525878765693    -2.303962830369    -1.970841947536
C      2.561134914339    -1.402040826662    -1.473227379168
H      4.041310628617     1.467725213360    -2.155272296875
H      5.746077673761    -0.052671986897    -3.044759421522
H      5.430486301552    -2.501151524621    -2.927884612849
H      3.318878069560    -3.354124895150    -1.907140399962
O      1.479509202961    -1.970384845758    -0.996505433026
H      0.666556931155    -1.278464128384    -0.837433780005

