# STO-3G

title

0 1
C      0.196045273753     4.080308936328    -0.191287860863
C      0.957658312812     4.955461876889    -1.003481430104
C      0.350632713599     5.719435508435    -2.013546112532
C     -1.037664989792     5.625356958813    -2.225418874999
C     -1.807230330525     4.758349279475    -1.422637861336
C     -1.199656512970     3.992321805213    -0.416872840020
H     -3.002949732051    -0.504254551086     1.166511510012
H      2.033160730098     5.025846156264    -0.847294775288
H      0.954530033772     6.379082955094    -2.631650582669
H     -1.513019944503     6.213279846406    -3.006949196243
H     -2.878750922053     4.677726729519    -1.589242847851
H     -1.804347794560     3.314257127736     0.175635187144
C      0.901301337373     3.341202981834     0.879688288096
H      2.725358859920     1.443978499200     0.661110081434
H      1.925749469289     3.670517755529     1.043440542703
C      0.321810329080     2.470240823959     1.815961953737
H     -0.725238691315     2.221720699550     1.742598439193
C      0.981457699131     2.036219462505     3.054029630280
O      2.238597343303     1.941718596210     3.055134698779
O      0.208836320821     1.393158930924     4.034120019355
C      0.927144974552     0.870675687202     5.160734397861
H      0.209020913723     0.407220604949     5.871705668322
H      1.651464139055     0.087145858922     4.841638312743
H      1.469545775454     1.682475218114     5.696780155565
Pd     1.268112039309     1.202623245608     0.228891159962
C     -1.185483379424     0.058148992283    -1.169186673647
O     -0.800333135628     0.882716419870    -0.253425659402
O     -0.775981137670     0.052114782224    -2.386395328572
C     -2.157995006303    -1.066237127925    -0.710066091537
H     -1.702064096123    -2.005993357610    -1.041205686051
C     -3.536921212023    -0.947071063084    -1.321052483275
H     -4.168538201049    -1.791070576433    -0.974838183259
H     -4.002443547781     0.006859240551    -0.999965353781
H     -3.468419597550    -0.971779061393    -2.428306785218
N     -2.285539949896    -1.080411273018     0.743760026439
C     -1.239891136628    -1.474782980519     1.523539907437
O     -0.148592561557    -1.918553480602     1.095204359742
C     -1.462954832643    -1.370106645194     2.981312270758
H     -2.333352493673    -1.999291608245     3.232172151062
H     -0.559714224380    -1.724861458311     3.505126137179
H     -1.664503495579    -0.312895627452     3.225839127835
N      2.069721439044    -0.402581215516    -0.819353016911
C      2.683008811186    -1.389940235923    -0.094859245360
C      3.569892940930    -2.245523908331    -0.715700240428
C      3.812716315356    -2.142593225621    -2.068381726562
C      3.146035894461    -1.177501234750    -2.777274798745
C      2.238685251654    -0.326505972568    -2.110317734590
H      2.507980498357    -1.467866211545     0.972039121475
H      4.060591493075    -3.010591308327    -0.136526154992
H      4.502089583451    -2.821265137635    -2.563695057867
H      3.259620488117    -1.067283201508    -3.837369844329
O      1.578411810609     0.514430986001    -2.883351393445
H      0.527201512057     0.536272596636    -2.663958304937

