# STO-3G

title

0 1
C      0.146983943981     3.517300382190    -0.024121087120
C      0.840616567503     4.145807878757    -1.087846940798
C      0.146881747495     4.873494181870    -2.066896799522
C     -1.254491413653     5.002258945833    -1.985561020208
C     -1.948705309997     4.402776468678    -0.916673220730
C     -1.259429925209     3.663769048533     0.061030494614
H     -2.077601718437     0.970944989585     0.249902101868
H      1.922767949370     4.045490992830    -1.154949668807
H      0.691080967539     5.337422915032    -2.885812277857
H     -1.795006169603     5.569606867171    -2.739539652367
H     -3.026787097064     4.518349978561    -0.835029054066
H     -1.811646865695     3.248439071797     0.901918529331
C      0.927121902222     2.789057470178     1.004513983665
H      2.890098457649     1.184046133212     0.706703531616
H      1.912614130478     3.205627179883     1.199882943710
C      0.422949217870     1.790499598570     1.849998712120
H     -0.596254537502     1.469236605624     1.734612574914
C      1.071449225259     1.343994510119     3.089302921508
O      0.514916107277     0.434588032034     3.757255805079
O      2.448771559058     1.594001264382     3.237048493668
C      3.040986779109     1.107061180521     4.450593034621
H      4.116575549491     1.386365467278     4.477541984849
H      2.545955390582     1.558341358753     5.341091041525
H      2.968095576919    -0.002906118636     4.513793262054
Pd     1.524775228842     0.749372428081     0.169270134262
C     -0.898982230231    -1.131344101253    -0.300453092613
O     -0.438413686465     0.092671208944    -0.653474734014
O     -0.317360806554    -2.214100170522    -0.515631784718
C     -2.283052689537    -1.080361920223     0.413018141641
H     -2.248947939017    -1.808515255302     1.230520083746
C     -3.407613557795    -1.454631109647    -0.528756534001
H     -4.371457160383    -1.447509136237     0.019275996875
H     -3.461792691400    -0.705754857460    -1.347002337479
H     -3.235231504254    -2.464127453850    -0.956383672197
N     -2.508617876308     0.288162075694     0.875810406407
C     -2.994611836735     0.769004631399     2.043075937205
O     -2.969319556883     1.996106801663     2.334882771831
C     -3.552755284851    -0.196002196336     3.014009222535
H     -2.733952313826    -0.846862417733     3.361852847642
H     -3.959950585592     0.375686425466     3.866758034795
H     -4.357361645733    -0.766328009468     2.520684588945
N      2.543715924213    -0.364673632672    -1.268665502386
C      3.768695103748    -0.926148824265    -1.024386438662
C      4.500196716817    -1.469528243016    -2.058979608624
C      3.999758268986    -1.474777554136    -3.343122480576
C      2.761281118621    -0.931932135678    -3.558642116849
C      2.037860136492    -0.394073514880    -2.474266852822
H      4.173575404684    -0.925341982802    -0.019084796680
H      5.467015145663    -1.902737080909    -1.859206119292
H      4.568654809685    -1.907097953214    -4.162232146391
H      2.302619823486    -0.922695299660    -4.527882551783
O      0.844269132870     0.065093750322    -2.779575615826
H      0.216363944862     0.163976394835    -1.937528580392

