# STO-3G

title

0 1
C     -0.243163684340     3.410950332454    -0.083924199832
C     -1.422281385074     3.603881903515     0.677608149348
C     -2.594192078399     4.097839916067     0.074005692694
C     -2.604498022296     4.404924646537    -1.301038183356
C     -1.434225508807     4.222329629258    -2.063537546144
C     -0.261925535003     3.740962973853    -1.457794612832
H     -2.590564867573     1.438032938943     0.670415293889
H     -1.404658473573     3.418612395796     1.749327816922
H     -3.486032585437     4.262433993021     0.674742672506
H     -3.508309902203     4.787236650240    -1.768871412925
H     -1.436716355601     4.446461641660    -3.126806850679
H      0.631018262190     3.586375620959    -2.058161994701
C      1.013008383663     2.967613581640     0.578164613356
H      3.238908928477     1.645468685233    -0.123201044098
H      1.882690143787     3.596589394123     0.396959758902
C      1.046172652373     2.031008007637     1.621564282491
H      0.156477846943     1.456892387122     1.837884466981
C      2.131589829686     1.904442516324     2.603185629709
O      3.295642808073     2.236162954063     2.251660223233
O      1.917220242079     1.101392834621     3.733447580397
C      3.048171652172     0.908217157819     4.594824796698
H      2.748645249800     0.272392592614     5.456483265903
H      3.874265602315     0.390253075093     4.056749908235
H      3.415141857346     1.881302698460     4.993244070918
Pd     1.834564581024     1.013145641971    -0.229762110998
C     -0.970631798483     0.201014928530    -1.243101249587
O     -0.085184583025     0.078172738198    -0.232993388292
O     -0.670301192240     0.547685300182    -2.406982748036
C     -2.417515950017    -0.112581944521    -0.763263398594
H     -2.521491821694    -1.203238247728    -0.695414781237
C     -3.482042841059     0.444367847382    -1.681223199544
H     -4.485343876832     0.188576273041    -1.283170338270
H     -3.382280772612     1.548475168331    -1.725189728479
H     -3.370984014877     0.020595477856    -2.700185810047
N     -2.636411947034     0.429001412385     0.574956922059
C     -2.559022921032    -0.368716943034     1.674795336426
O     -2.366556217663    -1.605191397621     1.655943331697
C     -2.752197137610     0.322628204401     2.968424118106
H     -2.684232038481    -0.423230606575     3.779476323538
H     -1.962723105541     1.082664116212     3.070747316054
H     -3.750016564622     0.793704840320     2.954975080939
N      2.699470239015    -0.631128204789    -1.170494518200
C      3.800761695448    -0.503666087530    -1.974441503030
C      4.486432911575    -1.624309107264    -2.391684943238
C      4.062679135721    -2.882305737435    -2.022622944975
C      2.946508151174    -2.985666248499    -1.236129857448
C      2.265472092734    -1.818319034591    -0.832773777436
H      4.143293146458     0.480994533539    -2.270655225120
H      5.355796785270    -1.514413824216    -3.019909108893
H      4.595687641953    -3.770166982234    -2.353020681826
H      2.553369931321    -3.934633140186    -0.926835173108
O      1.193397681110    -2.042273372301    -0.104891083816
H      0.550957787270    -1.222292178792    -0.007472004704

