# STO-3G

title

0 1
C      0.042905319560     3.829087342234    -0.318216184876
C     -0.969918832581     3.681314230586    -1.298167918652
C     -1.278082162608     4.735977056304    -2.173940715686
C     -0.589584784302     5.960952903570    -2.082157718710
C      0.412867449040     6.122401231742    -1.105160792662
C      0.724796284605     5.068020199568    -0.231464868357
H     -2.491636150289     1.815528419293     1.561283359716
H     -1.488733651378     2.733088639794    -1.409056313212
H     -2.049314862352     4.598251071502    -2.927720312012
H     -0.832654183109     6.778267773737    -2.757024106277
H      0.939488246557     7.069958199985    -1.017899322034
H      1.479426975345     5.222108597662     0.536125838057
C      0.343144858573     2.708267973487     0.607389475892
H      2.779878531920     1.582937145492    -0.523551692922
H     -0.490035192715     2.081360075998     0.902515960023
C      1.553320412649     2.564729031068     1.289344768709
H      2.347499652707     3.275543428846     1.121019559332
C      1.809361579409     1.604835311247     2.369478701407
O      2.806032692533     1.833508184008     3.103702509560
O      1.467398625445     0.273282405873     2.066754973062
C      1.921731664153    -0.713813266395     3.004192343785
H      1.568811781587    -1.718754865504     2.685468535551
H      3.034238817069    -0.738409394138     3.049638465429
H      1.517810771359    -0.505369466939     4.021437046909
Pd     1.389940625743     0.957416119724    -0.392327164785
C     -1.778222693140     0.131440743436    -0.564093748646
O     -0.544591134582    -0.052163888863    -0.075360000582
O     -2.048364893179     0.460032247148    -1.740222093270
C     -2.861903277048    -0.018856633763     0.565163083081
H     -2.904313300152    -1.078061476953     0.846419513764
C     -4.244069182415     0.414098274172     0.130950774902
H     -4.953895733843     0.289971509733     0.974681110750
H     -4.221511694676     1.484994968655    -0.160150456349
H     -4.585735511392    -0.194326158102    -0.731518310803
N     -2.463729613823     0.808457529371     1.709020566839
C     -1.652082076182     0.472122454982     2.755123129572
O     -1.013200495362     1.327690583888     3.416710184808
C     -1.593745449196    -0.951600483736     3.151170877178
H     -1.090287451635    -1.517656397316     2.351759278220
H     -1.015188104906    -1.021970615934     4.088011863269
H     -2.625197561663    -1.304889572595     3.322686471833
N      2.127540979623    -0.730539863288    -1.366540347875
C      3.100940479023    -0.633315718137    -2.324908542363
C      3.745468958891    -1.766546461293    -2.772669200645
C      3.407453494643    -3.007040906590    -2.277686656290
C      2.414787065573    -3.081486301964    -1.336598188002
C      1.773159090132    -1.901660835507    -0.905733803238
H      3.375763876682     0.337501380942    -2.720975707077
H      4.515426739420    -1.680087783297    -3.522898286587
H      3.909241914441    -3.904255765006    -2.631177381477
H      2.091690629230    -4.017451729664    -0.925403028433
O      0.812205322250    -2.096012326339    -0.025995599686
H      0.185508109418    -1.258702769316     0.094770239035

