# STO-3G

title

0 1
C      0.637019936224     4.149848874560    -0.022060779958
C     -0.725649548939     4.277805658794    -0.386061366729
C     -1.138323071940     5.361889219543    -1.178166226665
C     -0.211886666997     6.329953447702    -1.617176555408
C      1.144177070056     6.208072248541    -1.258282254244
C      1.561980675333     5.124358105646    -0.467978317141
H     -1.086958974428     0.115983666711     0.006773365799
H     -1.457891082805     3.537773395777    -0.075844750456
H     -2.186565358663     5.451212915070    -1.453037271357
H     -0.542708208409     7.166595908010    -2.228229957189
H      1.867120313824     6.950360507365    -1.588007333228
H      2.612211595019     5.033437806675    -0.191927271965
C      1.151529135805     3.060730540491     0.846976911799
H      1.649296498463     2.056667187817    -1.065462687664
H      2.215435493899     3.135987211085     1.077353273642
C      0.381895126015     2.144072887953     1.570838684737
H     -0.689902884040     2.156912841514     1.463323989591
C      0.890500735990     1.396236934343     2.731335180582
O      2.134478197241     1.228072332630     2.848437855304
O     -0.023382516622     0.730748639280     3.567960092245
C      0.554110095925    -0.068074785555     4.611119383001
H     -0.255231619695    -0.553602415169     5.197116731460
H      1.198732156119    -0.872140531725     4.186319817247
H      1.158752886346     0.560571790000     5.303139825474
Pd     1.194204409792     0.909109814400    -0.177844013913
C     -0.085003634275    -1.757528284727     1.571599416873
O      0.790091423998    -0.946768942456     0.959453802081
O      0.232824405708    -2.686745069731     2.343103527533
C     -1.587820062082    -1.523231746451     1.226988759717
H     -2.133457252318    -1.669214278348     2.164605771167
C     -2.082988865367    -2.543470313784     0.223372539114
H     -3.166781855886    -2.392586246977     0.041791253698
H     -1.540868746778    -2.409995769735    -0.735574971211
H     -1.917510109508    -3.573196624013     0.604127697143
N     -1.809595257159    -0.192101481066     0.659713025332
C     -2.730584794675     0.751759427835     0.953619036820
O     -2.698530810903     1.908465841062     0.452478353653
C     -3.796700735019     0.411526644335     1.918642835831
H     -4.332440233659    -0.477208979308     1.546719590988
H     -3.326283069294     0.232632961167     2.899736767333
H     -4.491058184426     1.268637828161     1.991833282098
N      1.841139568145    -0.303848774803    -1.730593482439
C      1.683074243216     0.073626672411    -3.037446701929
C      2.342834858584    -0.608175363803    -4.037523246210
C      3.153590491763    -1.681455628766    -3.738548895100
C      3.278671324436    -2.055589281619    -2.426896309787
C      2.585640683913    -1.341082756238    -1.427499033796
H      1.049066136539     0.917745488725    -3.284380885437
H      2.218183552493    -0.299070603228    -5.063099665072
H      3.673837418431    -2.223167890698    -4.524352936402
H      3.879984807818    -2.891719008296    -2.127676914620
O      2.741755086214    -1.800920940667    -0.212273784283
H      1.996411218631    -1.457079908044     0.482891143659

