# STO-3G

title

0 1
C      0.560060574112     3.466791104918     0.400108398625
C      1.947216518245     3.573312466568     0.068786057697
C      2.354137476213     4.030980817412    -1.201146953650
C      1.392689384088     4.348110412895    -2.177090371542
C      0.017919971916     4.218004882306    -1.883088560816
C     -0.392571874732     3.797832835388    -0.609940152350
H     -1.532479807387    -0.579216532806    -0.259016079914
H      2.694329275688     3.394459496878     0.839682875624
H      3.413567947206     4.149293733339    -1.415050254488
H      1.705275909520     4.706395354928    -3.155186589384
H     -0.725457902070     4.461419142456    -2.637677521205
H     -1.450205770965     3.770746607158    -0.361830369056
C      0.125097974762     3.248966873944     1.868236152647
H      0.696059144009     3.913664587808     2.525329929796
H     -0.936231645117     3.493061163225     1.967294859828
C      0.314387656828     1.753163070291     2.168716527723
H     -0.619999691675     1.273429467481     2.432995848218
C      1.432570912509     1.257066341745     2.994616226175
O      2.586393280138     1.716467132360     2.793939036222
O      1.238796740546     0.071495751201     3.721665502894
C      2.395002594202    -0.461163474807     4.382870040413
H      2.112681315088    -1.389311962408     4.926520368584
H      3.188691036130    -0.722646099004     3.646786621141
H      2.799533930063     0.265906622907     5.123159328563
Pd     0.664840755926     1.176061232190     0.216188011407
C     -0.010987972427    -1.887713401070     1.453095893509
O      0.834884872366    -0.946394696562     0.825309051375
O      0.411043945959    -3.023661772256     1.676502537592
C     -1.388094842426    -1.303768911897     1.786182015077
H     -1.311382971424    -0.759446118995     2.739153419078
C     -2.426264126758    -2.394312156785     1.950272521121
H     -3.394813303262    -1.944051567906     2.251482913292
H     -2.563781382073    -2.914157430776     0.978815655657
H     -2.110417467068    -3.123130807217     2.725299047551
N     -1.847354440156    -0.397264447009     0.738958054918
C     -2.622685127229     0.670700318507     1.027941561656
O     -2.866873067135     1.113465179388     2.184445910112
C     -3.208400847638     1.344031530807    -0.148130488122
H     -3.761186340986     2.239012385592     0.183463768190
H     -2.391715589072     1.599381420692    -0.843104207452
H     -3.886717044310     0.623038148355    -0.637167154627
N      1.004364470907     0.509841370108    -1.800907835221
C      2.076882993807     0.908423580581    -2.550673703357
C      2.224826060358     0.466830041416    -3.848159898887
C      1.294616621549    -0.374745138235    -4.413947349584
C      0.227028775202    -0.769918880366    -3.656644542727
C      0.089566609133    -0.306708951667    -2.322982670250
H      2.831969511233     1.547432913320    -2.113993197025
H      3.078054866517     0.786510638692    -4.422831315855
H      1.407651196155    -0.721702765023    -5.437478530205
H     -0.532379569213    -1.424474552472    -4.034128674874
O     -0.947695161066    -0.727955248754    -1.692795623219
H      1.618895376199    -1.380462480846     0.428487543479

