# STO-3G

title

0 1
C      0.278298168915     2.788407708708     0.763572141764
C      1.568499463693     3.402425427205     0.645629824600
C      1.854019912873     4.277827440509    -0.439252041987
C      0.879843095775     4.540865610791    -1.405517698944
C     -0.397071793144     3.927248472577    -1.309021778419
C     -0.689479427075     3.063431321803    -0.251582291074
H     -3.169607481604     0.201342588763    -0.338696432859
H      2.283024013604     3.330804836762     1.462144147756
H      2.831570897237     4.749610849360    -0.496137302115
H      1.092839040104     5.220406031036    -2.226954105735
H     -1.152365731968     4.129783106614    -2.064403864631
H     -1.664355722559     2.588308678611    -0.187266341199
C     -0.058340458479     1.933905082628     1.999171495694
H      0.030035547324     2.524112034523     2.917681532530
H     -1.088217356051     1.581410910178     1.942549597955
C      0.911890269678     0.731670932045     1.926234666884
H      0.424554380058    -0.228572353154     1.778907912756
C      2.048377891812     0.603034666103     2.862969471155
O      2.612848596253    -0.514010014951     2.975594220917
O      2.588562394312     1.755518129306     3.458415580217
C      3.709656583547     1.544883653941     4.328813309766
H      4.040528156684     2.519975331174     4.747385947825
H      3.432134791721     0.879655000814     5.178164900635
H      4.565194007950     1.096659144964     3.773824914644
Pd     1.583987132032     1.077342366693     0.005435341182
C     -1.198116387406    -1.309894697868    -0.183180937644
O     -0.102518135984    -1.955170035619     0.247033733832
O     -1.304972487839    -0.703944421568    -1.275654850798
C     -2.338968013919    -1.301088659764     0.852421096935
H     -1.921543710934    -1.299678087395     1.862222171146
C     -3.268394221105    -2.485546948052     0.703038403342
H     -4.054823690958    -2.436350141092     1.484483298373
H     -3.754499666481    -2.447517976616    -0.293837941931
H     -2.703532254758    -3.434238764095     0.811725561575
N     -3.111214759374    -0.078053277172     0.636579369615
C     -3.468155902596     0.734409900773     1.663485312231
O     -3.176359796109     0.533599227665     2.868304913955
C     -4.243470955735     1.944943261777     1.311774525594
H     -5.195848786955     1.896558739144     1.865580097650
H     -3.658457653146     2.821655501978     1.634274101305
H     -4.438904664237     1.985394953987     0.225556330986
N      2.150675727598     0.785044268123    -2.142508616227
C      2.347458247327     1.296717040655    -3.393500423318
C      2.581565292507     0.439290442807    -4.454769652890
C      2.608192300963    -0.930177733613    -4.263385787206
C      2.404123858673    -1.419915928909    -2.997224721232
C      2.172243606716    -0.503797988270    -1.951902863065
H      2.322430699289     2.369098431519    -3.548912689361
H      2.734408488371     0.847169538291    -5.440195368698
H      2.785010253085    -1.604008198586    -5.097450894245
H      2.405767824094    -2.467274316892    -2.775391626770
O      1.949587116215    -0.957674784147    -0.727287217434
H      0.774564494971    -1.708682431072    -0.265759197546

