# STO-3G

title

0 1
C      0.318395216558     2.897732822546     0.223231844551
C      1.635471119467     3.443814983486     0.386755242438
C      2.195712116353     4.280995305525    -0.620716169551
C      1.469277413157     4.573979053602    -1.776778216795
C      0.170425789550     4.025469574047    -1.954975624642
C     -0.389489871345     3.194326498811    -0.983203475463
H     -3.773143242865     0.165664333650     0.701617829801
H      2.148430633029     3.365969244242     1.342243670258
H      3.186532499691     4.701638170567    -0.468175525944
H      1.890859135206     5.226347185774    -2.537671176573
H     -0.390995354760     4.249591509454    -2.859002811106
H     -1.369349179067     2.749949608668    -1.134133613109
C     -0.330759191443     2.075776038308     1.349623258150
H     -0.520019052030     2.685622354282     2.239916307302
H     -1.283049435284     1.687946278504     0.984892322032
C      0.638043741441     0.896464465361     1.587129935954
H      0.203904205379    -0.082777524358     1.423985721073
C      1.530929107144     0.854924441327     2.762621039670
O      2.280957044746    -0.145273565818     2.897923151737
O      1.757234325946     2.031005521475     3.499408323198
C      2.659578312617     1.909915880759     4.607977275876
H      2.742698076075     2.890437964030     5.124416484304
H      2.283752179312     1.161687401129     5.342789247169
H      3.675586062839     1.611172893301     4.263127792231
Pd     1.662413997572     1.111700471741    -0.192817227039
C     -1.438557088325    -1.116524669132    -0.152963236007
O     -0.380136603872    -1.938661473024    -0.130819423768
O     -1.567248236911    -0.106241850594    -0.884548530774
C     -2.494221196569    -1.506107629929     0.908943058163
H     -1.965562032557    -1.957945663773     1.751775008951
C     -3.516697200138    -2.486367600296     0.376900185789
H     -4.229340438666    -2.749973641434     1.185604127066
H     -4.079835668845    -2.018244108589    -0.456433654073
H     -3.014224585066    -3.408400689349     0.018501725478
N     -3.201489848742    -0.319517820607     1.382402268362
C     -2.833209231354     0.300372857282     2.540694401083
O     -1.865122000954    -0.045625852913     3.258189310145
C     -3.655957001620     1.455392396660     2.965472586513
H     -4.057115885060     1.221213941730     3.965634509054
H     -2.998359261251     2.337428022383     3.016177985152
H     -4.485710647195     1.629362272228     2.257874123773
N      2.421373766912     0.723133114833    -2.265207778441
C      2.849245154323     1.210038244666    -3.467409360707
C      3.020780227763     0.344903637680    -4.534166574556
C      2.760307144209    -1.006214928014    -4.396680246642
C      2.328386974701    -1.470722839076    -3.179179784913
C      2.172339294758    -0.549134398555    -2.123705789694
H      3.051163936819     2.268902407156    -3.580806523886
H      3.357899283749     0.733583833651    -5.480871457004
H      2.893598823496    -1.685385197094    -5.234541939953
H      2.108739157379    -2.503293103033    -2.999680833830
O      1.741007902513    -0.977392467799    -0.950367814587
H      0.496207417621    -1.605388147711    -0.603033009536

