# STO-3G

title

0 1
C      0.437161906088     3.042149488592     1.082696327904
C      1.755964662878     3.533441611958     0.811099769400
C      1.985589010676     4.417581604865    -0.279138640283
C      0.924463778709     4.812276093859    -1.098866315733
C     -0.386423807928     4.330615748996    -0.843103972581
C     -0.625464598799     3.458019183248     0.221537994646
H     -3.589532352115    -0.664207325009    -0.629925852924
H      2.560066861837     3.355196750672     1.521706954140
H      2.990552770914     4.792133311584    -0.456195003254
H      1.097666550223     5.498175791564    -1.924618141722
H     -1.211360658898     4.649088428385    -1.476118303448
H     -1.626849120427     3.098516821040     0.437552602175
C      0.165126318075     2.179363759764     2.329713921683
H      0.451954124624     2.720813053656     3.238277279528
H     -0.899937098058     1.946770525200     2.382238575240
C      0.967047012599     0.879360381337     2.097689674160
H      0.352160957818    -0.005983149258     1.954359717673
C      2.176325699278     0.568892114157     2.889448425472
O      2.562113899723    -0.624795225519     2.965512027806
O      2.954887844123     1.621056673952     3.401164126436
C      4.131432683609     1.235091348696     4.126091947819
H      4.657216139074     2.144876248029     4.488337199123
H      3.865197202700     0.613055919214     5.010974942603
H      4.831565819204     0.665836177704     3.472869161418
Pd     1.475133924223     1.239334020016     0.132145186058
C     -1.235386123666    -1.683457628249    -0.045153454918
O     -0.063567491187    -1.831510510859     0.595959824950
O     -1.392865089238    -1.663966528760    -1.286556261492
C     -2.417895575368    -1.453012443186     0.924017134161
H     -2.038713311282    -1.067141713478     1.871887668217
C     -3.220378693609    -2.709990343286     1.174392166194
H     -4.049013747439    -2.483584030542     1.876687280471
H     -3.652676204065    -3.067931500961     0.216970983134
H     -2.573138276313    -3.497682888684     1.611763056309
N     -3.302078930033    -0.457278644457     0.320977769924
C     -3.394813216122     0.808615797794     0.794111470694
O     -2.814131494190     1.248448234867     1.818231259132
C     -4.267156705773     1.708494884642     0.011158955362
H     -5.273023637523     1.256323907685    -0.019372485355
H     -4.299985195423     2.693088034334     0.508428161473
H     -3.848284791248     1.795684349999    -1.006427070669
N      1.875739264986     0.911689969362    -2.076112658035
C      1.981596579052     1.381618569329    -3.354558715151
C      2.167044238424     0.491989748311    -4.398595575150
C      2.237617657174    -0.868961447795    -4.162321747457
C      2.133227823004    -1.316241558056    -2.868973540293
C      1.946809853138    -0.368928395599    -1.843256604921
H      1.919686750654     2.446753042062    -3.545493469539
H      2.244607740819     0.866747122972    -5.405719222552
H      2.371959734989    -1.569048687235    -4.982556746257
H      2.168331798956    -2.355167321641    -2.612284760294
O      1.827620487197    -0.782547905305    -0.591374371421
H      0.780033840431    -1.603290075452     0.023105032789

