# STO-3G

title

0 1
C      0.162705241739     3.380922957849     0.824466944807
C      1.417970258329     3.986803245773     0.493585418217
C      1.559109707632     4.748932232852    -0.697938568460
C      0.471636311060     4.908700114645    -1.562332449167
C     -0.775837397974     4.307037666447    -1.251778966162
C     -0.926819695098     3.553071775400    -0.084756976784
H     -3.424868869710    -0.916086566591    -0.406718175979
H      2.227127941604     3.985031479952     1.222091370915
H      2.515594169805     5.215643959364    -0.918947456723
H      0.575913392715     5.502882391643    -2.466869763409
H     -1.621325220235     4.439999229352    -1.922431340464
H     -1.882076703671     3.105270767135     0.171068238310
C     -0.019872798110     2.660007880416     2.173345660326
H      0.282140461862     3.317401211018     2.996098175351
H     -1.066422794517     2.381552207696     2.304328604778
C      0.840230773127     1.382323652691     2.058361116861
H      0.260908689467     0.465689712912     2.003609046333
C      2.067123688339     1.202257178118     2.860843170737
O      2.839249411713     2.182709525442     3.023669940910
O      2.449599018101    -0.097392157175     3.227091433670
C      3.707652272358    -0.215736704009     3.905975364804
H      3.894577073243    -1.284157614710     4.148943929901
H      4.541314939962     0.142401690158     3.260035115937
H      3.700813424985     0.361728848214     4.858206580974
Pd     1.400396280929     1.601175706546     0.091232299452
C     -0.937394941463    -1.615692584755     0.213936676504
O      0.235769101856    -1.589398481004     0.869192097919
O     -1.079920420341    -1.673259826794    -1.027980964603
C     -2.150104722555    -1.488923404481     1.164962600975
H     -1.827483064739    -1.026042047260     2.099166866996
C     -2.801466443895    -2.821480139706     1.459721393834
H     -3.658363332662    -2.667859406280     2.147688567918
H     -3.178509666143    -3.264689094535     0.514705137520
H     -2.070680569029    -3.509794002092     1.931729158281
N     -3.140640598986    -0.626773190229     0.523120882440
C     -3.349261177768     0.651100013975     0.923554395318
O     -2.789914947926     1.207513893602     1.901344037426
C     -4.331036193705     1.408337192178     0.119423070600
H     -5.285665123132     0.856140544344     0.150163575614
H     -4.451025423793     2.413368687245     0.559215818265
H     -3.952569167587     1.474237390850    -0.915444844324
N      1.988656850708     1.075623672573    -2.040405953691
C      2.131351439544     1.405675674686    -3.358445971087
C      2.492782406942     0.431864545326    -4.273393933624
C      2.703353165729    -0.873695417331    -3.868712884263
C      2.557995636192    -1.179478370509    -2.538491481702
C      2.190245881942    -0.150630845550    -1.648990961942
H      1.960900856977     2.426199787720    -3.681406885585
H      2.599283268190     0.695922209325    -5.312526679454
H      2.977330612435    -1.640840168559    -4.588026727045
H      2.696334587561    -2.169489184364    -2.155300338275
O      2.031733844102    -0.431459976361    -0.364016089686
H      1.055247353516    -1.303195447939     0.287854179397

