# STO-3G

title

0 1
C      0.524796215720     3.011754353291     1.188353025653
C      1.856361290427     3.440601255973     0.866707213783
C      2.074037768483     4.391670517632    -0.171785343070
C      0.993555719412     4.920355514949    -0.880533630168
C     -0.329267582480     4.512302943389    -0.560058404448
C     -0.560965660732     3.570532087234     0.444647381127
H     -3.093798328710    -1.121694232336    -0.668596822274
H      2.691828566873     3.184969668696     1.514008663208
H      3.089479495003     4.713809387837    -0.388999372734
H      1.159852908431     5.657810565674    -1.662207960764
H     -1.170926359486     4.944345283847    -1.096976547317
H     -1.567704663793     3.252755576126     0.701892772856
C      0.266716406136     2.047465754311     2.362516495456
H      0.468330088663     2.535945185051     3.323351200089
H     -0.782997718916     1.747276190915     2.339591033963
C      1.159579744209     0.820290730125     2.071164445745
H      0.621902192330    -0.115580919138     1.966826070708
C      2.437125564455     0.601657527617     2.782790541865
O      3.109648461215    -0.421297542901     2.500917754715
O      2.989620621790     1.642431256791     3.549536590242
C      4.256097972214     1.364794695237     4.163957914736
H      4.582063755392     2.249334490232     4.752776958764
H      4.177840220054     0.496208613452     4.856997377210
H      5.033358029642     1.153772743636     3.394599189824
Pd     1.485746369928     1.229459450405     0.078505193197
C     -1.162768500393    -1.834101067805     1.202056113821
O     -0.745271777004    -1.626458713769    -0.065660286085
O     -0.453791552693    -2.200687402011     2.156946966629
C     -2.673971630869    -1.505529574285     1.348728025824
H     -2.787876825353    -0.949829455442     2.283792179319
C     -3.533741056100    -2.748437297990     1.406334047743
H     -4.594321605508    -2.456071329501     1.551183007983
H     -3.444342192205    -3.305033717517     0.451212497691
H     -3.214942631795    -3.397260428160     2.248233683680
N     -3.140969598723    -0.676926625864     0.241128684154
C     -3.040608790178     0.675055826621     0.298803249866
O     -2.680225648194     1.324584335611     1.313594815520
C     -3.392772119928     1.422379010002    -0.929517886582
H     -4.154458022980     2.170792609504    -0.654436700082
H     -2.476743577253     1.914347593067    -1.293888368102
H     -3.796616783993     0.741857401316    -1.699917932296
N      1.588352802708     0.988237134685    -2.164654843726
C      1.651838715061     1.530441781970    -3.417066836741
C      1.642152488046     0.699834844497    -4.523918981442
C      1.570734814074    -0.673298500518    -4.376130741042
C      1.512167231105    -1.193875911653    -3.107525963968
C      1.528154347966    -0.306020461714    -2.012729283381
H      1.703542806609     2.606329555582    -3.538289616486
H      1.689442266978     1.131932922794    -5.509981513807
H      1.562127273234    -1.325975800821    -5.245091277074
H      1.458731596994    -2.246586235742    -2.916180337921
O      1.467163667550    -0.795837142337    -0.783685478001
H      0.260038939276    -1.456639315643    -0.287424375812

