# STO-3G

title

0 1
C      0.461021027911     3.695127977523     0.825025672646
C      1.814414372266     3.931320301912     0.418611358962
C      2.090539874640     4.654450981789    -0.775273167747
C      1.040715987670     5.138860641143    -1.560299541838
C     -0.304870701362     4.904839539373    -1.169956917906
C     -0.592913038145     4.188706546528    -0.005473279472
H     -1.689239150690    -1.243582047859    -0.288399549174
H      2.634346625368     3.694529237465     1.094821967752
H      3.124152486436     4.839971180836    -1.055663784395
H      1.251513100019     5.705213191097    -2.464074192083
H     -1.118247546681     5.290590769317    -1.779808635751
H     -1.618766553919     3.989056539102     0.291978012249
C      0.167272992200     3.012545751122     2.172686373679
H      0.648416912918     3.555023092096     2.993200804501
H     -0.911192815596     2.987848596195     2.335536448184
C      0.678444608395     1.566004489617     2.005870005882
H     -0.124436320097     0.838515708573     1.994242628489
C      1.851463033602     1.059605297310     2.742786477974
O      2.880731701510     1.778213976824     2.826032467327
O      1.865934457040    -0.290375693343     3.118607581520
C      3.078358458452    -0.771641276517     3.713491962331
H      2.956963298715    -1.847762732144     3.967400611446
H      3.931846756039    -0.679187145355     3.004321896248
H      3.309106595189    -0.216493978930     4.650655180739
Pd     1.134296017568     1.656279557275     0.013594673355
C     -0.892507041152    -2.199058762898     2.037744422241
O      0.140954002651    -2.224342682602     1.161572364292
O     -0.972757258554    -3.003598487921     2.979853420049
C     -2.010080779104    -1.130305976153     1.793915491082
H     -1.854534660233    -0.306001801541     2.500302234470
C     -3.394786804581    -1.694045219007     2.030502515965
H     -4.152106059004    -0.896049067104     1.884308824309
H     -3.588392891127    -2.509913351202     1.304738574352
H     -3.481810932826    -2.087941438986     3.064573389869
N     -1.970893454117    -0.591810337003     0.432756666393
C     -2.176331022975     0.714877814278     0.138529815221
O     -2.390988454797     1.613491793475     0.992839193458
C     -2.153637639002     1.091724348298    -1.292945601565
H     -3.127327884897     1.553921324981    -1.526042853025
H     -1.341961663523     1.820760486480    -1.442301362485
H     -1.994077872573     0.209304373682    -1.937365005201
N      1.313774644576     0.888969240270    -2.168028372382
C      1.500228932265     1.062473168800    -3.510801659010
C      1.477658209760    -0.035330695913    -4.353481227486
C      1.275338618653    -1.308056439599    -3.851609422582
C      1.096418533606    -1.457663300426    -2.499312321821
C      1.127762163588    -0.307958235697    -1.685478525565
H      1.657507864466     2.057631094871    -3.910443897981
H      1.622205704454     0.107362853193    -5.411957618330
H      1.258867908803    -2.170466327074    -4.512867963760
H      0.935377572937    -2.412439140629    -2.038891490717
O      0.952886882744    -0.435367113484    -0.382762023101
H      0.401214657671    -1.446990950077     0.530869675231

