# STO-3G

title

0 1
C      0.061420602549     3.247364689897     0.208448704138
C      1.380407890859     3.754330596780     0.475514534353
C      2.049983817879     4.549116726817    -0.500643240105
C      1.435194088104     4.826549014049    -1.723515329245
C      0.137501053035     4.315657516005    -1.996788925289
C     -0.535710208897     3.532337789318    -1.056415354041
H     -3.745539991624     0.254140568930     0.928049216567
H      1.789058411708     3.706252373355     1.483599023415
H      3.034949305349     4.948275400789    -0.272131032822
H      1.941597163458     5.439735336409    -2.464507527379
H     -0.337674511797     4.532160134234    -2.950361923453
H     -1.519077384883     3.126639400714    -1.281357699954
C     -0.678789458373     2.461388670603     1.300346445874
H     -0.876681604135     3.086703365464     2.178351738104
H     -1.639296368946     2.109086228388     0.915188865344
C      0.256342597206     1.260828549524     1.579030948493
H     -0.162709840886     0.298393532104     1.328822865616
C      1.042989436739     1.146844263166     2.824935509006
O      1.240688902925     2.177250285534     3.520982688370
O      1.865585873008     0.019296410888     2.966132755338
C      2.605001299773    -0.064466556485     4.192279705128
H      3.194937091419    -1.006368340838     4.201514343243
H      3.312388939841     0.789947279596     4.291290861957
H      1.915910845341    -0.080826103883     5.067350516386
Pd     1.509087189724     1.443330428663    -0.034555997399
C     -2.170442889609    -0.069783049966    -0.961081326453
O     -1.057352740163    -0.089447461535    -1.708647009858
O     -3.143659899084     0.669007208615    -1.222785248462
C     -2.212238141252    -1.000053238991     0.284890536915
H     -1.210890466836    -1.223711351428     0.660847735821
C     -2.910478414858    -2.308224960999    -0.017184773300
H     -2.920281990314    -2.939943797230     0.895351804576
H     -3.959718150768    -2.103782513617    -0.317756615787
H     -2.384995447490    -2.848469625951    -0.831193846745
N     -2.981749097140    -0.295851134481     1.310590879865
C     -2.591752159281    -0.213057908887     2.607859736527
O     -1.537609336421    -0.713185118849     3.071793487480
C     -3.469814512473     0.556502215164     3.515817173402
H     -3.773549306262    -0.119603545651     4.332187345192
H     -2.879187827506     1.397448375177     3.914420494239
H     -4.361373737696     0.929958817408     2.981459312249
N      2.624350839556     0.824961402574    -1.888287975778
C      3.470476316117     1.148412391293    -2.911535080721
C      3.753270789429     0.210402849184    -3.888408240983
C      3.185662324129    -1.049115898061    -3.843609839164
C      2.336844928698    -1.348800264972    -2.807244322043
C      2.084370430168    -0.360568656207    -1.833951588374
H      3.914616322348     2.136200529522    -2.954341961554
H      4.419990880117     0.470754530911    -4.694204112261
H      3.405175793298    -1.784921251550    -4.612822923253
H      1.862056907072    -2.303776854044    -2.710008430387
O      1.241085248856    -0.637953644388    -0.843689004643
H     -0.179595073517    -0.473269698737    -1.304568838577

