# STO-3G

title

0 1
C      0.284669510338     3.688270646568     0.349309287791
C      1.684873192426     3.923451595872     0.557416817935
C      2.427031450431     4.704392439911    -0.374696932263
C      1.800180680749     5.237090015506    -1.503469967610
C      0.416744323374     5.000887499566    -1.722804795375
C     -0.325441427538     4.235176041113    -0.820091919290
H     -3.744524190553    -0.430077651401     0.631869219124
H      2.143642349481     3.661924723880     1.509773190569
H      3.481069589044     4.890696205255    -0.186249395253
H      2.364196744817     5.840781545893    -2.209619594078
H     -0.070022112922     5.421942571526    -2.599031270595
H     -1.384943097101     4.060507350783    -0.992311973137
C     -0.518788974046     2.921055300403     1.409616337888
H     -0.460769992668     3.410670088751     2.386939371089
H     -1.571895185147     2.865831857285     1.118798249269
C      0.103299738980     1.510744451127     1.389463924651
H     -0.561991999063     0.765792082725     0.982686416906
C      0.882546043783     0.976927770456     2.525946158193
O      1.560444482905     1.781425571017     3.218343060590
O      1.206289675666    -0.388886644063     2.501059697201
C      1.935630495606    -0.874394302391     3.636015837124
H      2.109824864537    -1.965752957602     3.521057523795
H      2.925761500435    -0.371543813862     3.719212016429
H      1.355415997005    -0.713652255600     4.573401712002
Pd     1.359898169635     1.702520511635    -0.213552248272
C     -2.071053682887    -1.360985589905    -0.834664300879
O     -0.954684849884    -1.333483459309    -1.573113070107
O     -3.217625487375    -1.345366751552    -1.330574858244
C     -1.908971958943    -1.400231310580     0.714076710492
H     -0.913185100794    -1.085019308235     1.025375492334
C     -2.161836754557    -2.786031342902     1.269107139524
H     -2.035995617349    -2.771097968380     2.371778637667
H     -3.202778913956    -3.091849758477     1.032562688594
H     -1.448464869907    -3.513089791033     0.829823621026
N     -2.936056045273    -0.495563216676     1.244742220704
C     -2.838037994709     0.178504075449     2.414766366945
O     -1.827842977227     0.180909415710     3.163760953321
C     -4.007706421632     0.994983521287     2.809092808578
H     -4.356994597383     0.618392750170     3.784856000242
H     -3.669123487758     2.039176467915     2.902037606666
H     -4.816862367769     0.916797641309     2.061304852178
N      2.493112087667     1.088080553765    -2.086329253153
C      3.287184956803     1.390962523881    -3.156498010535
C      3.565515903967     0.417788023646    -4.100018548280
C      3.046350240740    -0.857335400089    -3.973825272947
C      2.254579983295    -1.137892898223    -2.888120238418
C      2.005630406035    -0.112236702235    -1.953658560846
H      3.691800051547     2.390792901219    -3.263726244957
H      4.189041697668     0.662525471743    -4.944354059327
H      3.259263497124    -1.620128496388    -4.718261664592
H      1.815477079924    -2.102781619270    -2.732862996714
O      1.228311399773    -0.366209135993    -0.907322416150
H     -0.041411278831    -1.021295336837    -1.163577268277

