# STO-3G

title

0 1
C      0.203647643749     3.398383290763     1.187849053487
C      1.544234557388     3.749389012414     0.822777255507
C      1.782777432872     4.647386120704    -0.255727195831
C      0.710231134804     5.190818888708    -0.967401273981
C     -0.622575982474     4.846631613458    -0.615871461228
C     -0.873049911253     3.960593610337     0.434547114831
H     -1.698355312700    -1.300463061974    -0.698016726502
H      2.376906199527     3.462163713288     1.461723147984
H      2.805751057135     4.917195056336    -0.504841745238
H      0.892177550804     5.887175180309    -1.782208269748
H     -1.454521858038     5.280946955386    -1.164929746562
H     -1.888141046679     3.688260194491     0.710433158086
C     -0.064795603111     2.513798737908     2.417812796403
H      0.342721490487     2.972154952035     3.324999167181
H     -1.141557976285     2.378737040644     2.531948213249
C      0.567074696875     1.150479527834     2.069004647543
H     -0.166726359031     0.361502166783     1.944247765426
C      1.776894713600     0.657048724416     2.757096632234
O      1.986156344509    -0.580906811784     2.796459581433
O      2.739065224482     1.576900041673     3.206612975091
C      3.901560681505     1.011601953253     3.829732969067
H      4.583272015171     1.828557759718     4.151154597506
H      3.620253081775     0.420169311353     4.730940279271
H      4.455045923795     0.356618669545     3.118474541472
Pd     0.991762797879     1.528680424896     0.099786291217
C     -0.905353211543    -2.859318812012     1.190047231423
O      0.112999653606    -2.643053342278     0.321365286871
O     -1.037744929396    -3.938008387197     1.789731530102
C     -1.925435415706    -1.687765959602     1.371461176249
H     -1.590786019858    -1.069414794380     2.214632164315
C     -3.321177845641    -2.186189003840     1.680926594534
H     -4.002244296680    -1.323980690136     1.836852276612
H     -3.692607499899    -2.789201072992     0.827451908858
H     -3.314779179614    -2.809110524990     2.599534329738
N     -1.996968276510    -0.858694801821     0.163325990363
C     -2.330621433659     0.452327710608     0.161394638155
O     -2.582400130169     1.138204520234     1.185369158922
C     -2.417356797584     1.080208634239    -1.173976635459
H     -3.154301349589     0.509946197956    -1.764938669016
H     -2.751086449867     2.124724119408    -1.057092001552
H     -1.424835412164     1.039306635617    -1.650878630756
N      1.323264114293     1.097434359940    -2.149529119620
C      1.587152187793     1.476807774104    -3.435810453783
C      1.729100647389     0.513443069621    -4.419499051271
C      1.609917811992    -0.830666923207    -4.115498865475
C      1.349981300799    -1.187292658421    -2.816253437734
C      1.216759486399    -0.168007108319    -1.853138778130
H      1.678229967197     2.528610352367    -3.681135082384
H      1.934079091227     0.817876115351    -5.432819119516
H      1.720113219412    -1.587629015014    -4.887629414873
H      1.244703866529    -2.208972249494    -2.506485276731
O      0.963339306175    -0.491854882109    -0.597904094814
H      0.422993417212    -1.704773804634    -0.002316296531

