# STO-3G

title

0 1
C      0.312253191309     3.237531645594     1.271500258233
C      1.651797520253     3.500981079183     0.826348575602
C      1.886046519319     4.440753525851    -0.220211539923
C      0.817239263713     5.110561940494    -0.818358779444
C     -0.510311514133     4.859877196655    -0.377473327254
C     -0.760865523905     3.934095358184     0.637963673521
H     -1.494803099697    -0.959454349325    -0.516532119843
H      2.503654570399     3.142432036326     1.401327016657
H      2.908314612485     4.641582002010    -0.530604798590
H      0.997873729547     5.835352386525    -1.608087977611
H     -1.339308543982     5.398028178579    -0.831050561489
H     -1.774606150110     3.735962407195     0.976960546727
C      0.054650928283     2.279360591873     2.445080596597
H      0.416426522732     2.699031845428     3.390269776238
H     -1.018679174387     2.098318542149     2.531220976798
C      0.755348118837     0.975363852965     2.018439740975
H      0.100347029439     0.119224423813     1.931097863816
C      2.072614316482     0.580376172261     2.556913386976
O      2.721959783396    -0.278951615059     1.911258290201
O      2.717644539536     1.424524954412     3.476736788921
C      4.032744086381     1.019113848809     3.882842301376
H      4.429817168135     1.745629782617     4.624435227070
H      4.007191433437     0.013600056830     4.361703083068
H      4.728497643451     0.996346724914     3.013411612798
Pd     1.025435206589     1.372936106756     0.017278480200
C     -0.939279447918    -2.283730140319     1.908883772828
O      0.202377909386    -2.188920256155     1.179651562477
O     -0.974697662693    -2.937376474826     2.962439621341
C     -2.229054082106    -1.569130209081     1.394714222762
H     -2.624968926886    -0.999872125125     2.242353300046
C     -3.275459555471    -2.577137209733     0.968142359947
H     -4.211293820451    -2.047304222836     0.693787459759
H     -2.909422168940    -3.136962282383     0.083586324006
H     -3.492051733579    -3.285135013571     1.795469496032
N     -2.033318053503    -0.642170655536     0.283940148146
C     -2.436254038932     0.653744716487     0.321663472413
O     -2.863658727457     1.253323211791     1.340442286262
C     -2.388214320310     1.366801398455    -0.972671420914
H     -2.824338031192     2.372025765366    -0.844307237895
H     -1.339930098380     1.437619464048    -1.296302079162
H     -2.980529708816     0.788451459601    -1.703049883545
N      1.179222455394     1.018954796863    -2.239670426377
C      1.500840127953     1.452297069790    -3.495248880034
C      1.549595763903     0.547868632494    -4.541436699788
C      1.278238804756    -0.791544850090    -4.330820748282
C      0.960444596162    -1.203497830109    -3.061198440189
C      0.928637336821    -0.244759394171    -2.028680623908
H      1.710918980577     2.501567910042    -3.667450313627
H      1.801727841176     0.895256888092    -5.529954263417
H      1.315610216647    -1.502220777982    -5.152230796397
H      0.739067287579    -2.223639929072    -2.821130065334
O      0.615849744796    -0.625162520164    -0.805083722287
H      0.303026501357    -1.613547396740     0.351651745344

