# STO-3G

title

0 1
C      0.375572662712     3.234099266452     0.749670876389
C      1.710073043609     3.705026336411     0.522633252519
C      2.008986628655     4.491787659846    -0.622437945338
C      0.999975212806     4.804624297275    -1.539129007793
C     -0.323885134567     4.335926725756    -1.329844289403
C     -0.635709668795     3.560593380226    -0.209227387213
H     -1.853870282489     0.222314898190     0.222813093152
H      2.465365310616     3.583704301517     1.297026954983
H      3.021708037169     4.859475779360    -0.766437554871
H      1.223479995209     5.420924947588    -2.406848080815
H     -1.106221861294     4.593291588546    -2.039937987313
H     -1.651045384144     3.219072563116    -0.020700536358
C      0.024457965314     2.495502002913     2.053796729536
H      0.345098722749     3.081683833805     2.921641284626
H     -1.057474064734     2.363627102777     2.105360808781
C      0.734640887203     1.127786246541     1.935386957508
H      0.055699612663     0.289833944860     1.794055953416
C      1.861459962961     0.774101834515     2.822055618601
O      2.073957212464    -0.436430077511     3.085504049918
O      2.759168201694     1.778310326864     3.223469867975
C      3.857304151431     1.346581373570     4.039772581324
H      4.490980827067     2.221871544796     4.299721830195
H      3.490969033552     0.889585485627     4.987235207175
H      4.490083544163     0.608608841158     3.495575531622
Pd     1.431810774952     1.353175831815     0.009925856196
C     -1.264743311190    -2.177202434419     0.389137757575
O     -0.490861114048    -1.187017511693    -0.107889293193
O     -0.932939316246    -3.357500940112     0.578169266561
C     -2.691754579859    -1.629317331749     0.678566502048
H     -3.026228375927    -2.093410817055     1.613050037621
C     -3.652086538074    -2.007264629326    -0.431008513918
H     -4.674325903318    -1.658512891640    -0.185027384351
H     -3.329435126453    -1.517311468767    -1.373626834281
H     -3.667568783281    -3.108501080597    -0.569992842512
N     -2.630563493737    -0.165317566498     0.760872200645
C     -3.334294260835     0.724977354299     1.491794825359
O     -3.103624508327     1.965296449384     1.456505222152
C     -4.400072612851     0.213060837042     2.379636112513
H     -4.872897265840     1.074749440888     2.884085606505
H     -5.143956345926    -0.311324233589     1.760326046364
H     -3.944483977415    -0.455848485913     3.128658225582
N      2.090044729193     0.959772260883    -2.097191791895
C      2.387586430809     1.425176393219    -3.346533564486
C      2.762589686438     0.533694699859    -4.337064109804
C      2.836344254047    -0.822591475358    -4.076059028393
C      2.531644737564    -1.264767003547    -2.812737767376
C      2.158145710580    -0.316367128448    -1.839538275323
H      2.327819615768     2.486922331720    -3.556331498463
H      2.995025146909     0.904810040946    -5.321583957498
H      3.129247969592    -1.522894910763    -4.853789419248
H      2.569230104938    -2.298988020478    -2.535528182856
O      1.856474442984    -0.726984910021    -0.615333341782
H      0.530781525583    -1.263601252427    -0.302234064645

