# STO-3G

title

0 1
C      0.327278851187     3.039262735495     1.623838983491
C      1.541836592638     3.516544405686     1.031634642778
C      1.501176186138     4.487365956404    -0.008520916426
C      0.274493808712     4.973525570347    -0.467922093223
C     -0.936030113618     4.502966143901     0.107274654383
C     -0.913065776984     3.550824367793     1.129770697489
H     -0.905958399248    -0.696860467232    -0.284430644515
H      2.499523914398     3.263656457444     1.483258473599
H      2.434120588817     4.856024782962    -0.426744104484
H      0.242184314533     5.724211932302    -1.253410146774
H     -1.888588582106     4.894441562960    -0.241328830473
H     -1.841666033866     3.218263023412     1.589291952466
C      0.385544823935     2.068353429610     2.813143658637
H      1.018667564291     2.476307593733     3.607432901020
H     -0.616088066179     1.908089200212     3.216317023378
C      0.920563739983     0.745325995116     2.214414655422
H      0.176015224550    -0.044409645975     2.196696025618
C      2.248083496836     0.218884894886     2.594035419902
O      2.429364385553    -1.024423088383     2.618136359433
O      3.312686508911     1.118484639234     2.771601313933
C      4.581354430099     0.530028385093     3.093176444265
H      5.340763853655     1.332072569090     3.217438858780
H      4.522517840125    -0.042423357731     4.047070410837
H      4.922629454195    -0.148303401950     2.277843357047
Pd     1.021501516479     1.319831716618     0.240395799902
C     -2.596067895782    -0.824526227956     2.398734085297
O     -2.224503081275     0.511216302504     2.360972665253
O     -3.039659258132    -1.343909160468     3.422705665453
C     -2.401179677575    -1.560181065032     1.034436919417
H     -3.397936002783    -1.922520760145     0.754050670164
C     -1.460568009552    -2.739640941032     1.149511805331
H     -1.423303020895    -3.275499030521     0.178490642260
H     -0.435723371677    -2.389279614394     1.392754702494
H     -1.811552673953    -3.439628018014     1.936169180551
N     -1.900378472073    -0.659591588097    -0.006724169373
C     -2.803471712531     0.050907981540    -0.753010444036
O     -4.030349838328     0.097705652827    -0.513341859474
C     -2.248287272241     0.833604307034    -1.873371312196
H     -1.761369743596     0.129009993917    -2.568626264907
H     -3.077816156177     1.355647708994    -2.381843184030
H     -1.523833037989     1.562021701097    -1.472668857646
N      1.140216002222     1.220767931727    -2.014879171304
C      1.315164507768     1.802961276821    -3.238413473533
C      1.369665049637     1.011561447518    -4.372349986207
C      1.255814658903    -0.363829108193    -4.281434347330
C      1.084891499760    -0.926141200369    -3.042015550070
C      1.035104563375    -0.079713855920    -1.915740922715
H      1.403035202027     2.880399522578    -3.316538787136
H      1.504319356708     1.475813356482    -5.335553627535
H      1.298707679049    -0.985562474834    -5.171791057202
H      0.983708403485    -1.981534737495    -2.887854756251
O      0.854242402880    -0.609021408863    -0.714963912664
H     -1.902339892584     0.718906041101     1.448047403040

