# STO-3G

title

0 1
C      0.360613421005     3.539388524934     1.088283528166
C      1.745460170496     3.819941233176     0.843876724158
C      2.132437747349     4.635206673952    -0.256017867938
C      1.161898381133     5.163214979246    -1.111849189921
C     -0.211367273896     4.874980010773    -0.891772781184
C     -0.608393222603     4.067774920289     0.177052251894
H     -1.217841839459    -0.009762874244    -0.065529225100
H      2.496361285231     3.543686215564     1.580934769316
H      3.185614284615     4.856126504205    -0.409414064755
H      1.454640068862     5.799312438310    -1.943680967579
H     -0.962594236451     5.283032252892    -1.563706075837
H     -1.651906449805     3.815284860656     0.334796177972
C     -0.065956235570     2.760174895640     2.347891828545
H      0.278581764019     3.266978035712     3.255924605979
H     -1.152233140624     2.682982040587     2.364694749698
C      0.537150220746     1.353615420369     2.149535764635
H     -0.193047832802     0.554299310442     2.051815953569
C      1.723205431272     0.905291127961     2.909418940779
O      2.084766191649    -0.293188119916     2.807983166996
O      2.544414931954     1.859237644093     3.535761153618
C      3.706797097788     1.345529630181     4.201959828873
H      4.266625669072     2.185100093850     4.667790515812
H      3.418711059261     0.631312204912     5.006790115632
H      4.384170111807     0.833713294937     3.480870196289
Pd     1.076808627168     1.579092150818     0.179412750394
C     -1.318030842896    -2.691996486179     0.974061236327
O     -0.019790222300    -2.314803855481     1.020833525928
O     -1.751003415699    -3.668017843347     1.608859265843
C     -2.296539952508    -1.836097790281     0.098145470975
H     -3.290637773652    -2.153117582396     0.423897954763
C     -2.184151416422    -2.150638037307    -1.379087127952
H     -2.974512953220    -1.603177387544    -1.933137099339
H     -1.200121050031    -1.819578158007    -1.760799773086
H     -2.304529233356    -3.240081449301    -1.553194011484
N     -2.106927151022    -0.390903997836     0.269881371470
C     -2.906446317031     0.524731303394     0.869886939667
O     -2.589451349690     1.738294471980     0.978130750956
C     -4.197575416877     0.072852426368     1.432348396261
H     -3.993975387052    -0.684614052612     2.208312513874
H     -4.701413192761     0.945099099177     1.885665269395
H     -4.817125176678    -0.329487207989     0.612843289406
N      1.510478808068     1.019382262444    -2.014246285414
C      1.989106083810     1.325348742007    -3.256845191874
C      2.233431571706     0.310273404252    -4.166394107434
C      1.997255435507    -1.010313137711    -3.831234646576
C      1.511439880362    -1.292071299409    -2.578613335287
C      1.276449680100    -0.219784100047    -1.693178698248
H      2.177851415725     2.358774631410    -3.523706942157
H      2.612404043152     0.557264054464    -5.144429208621
H      2.194483113690    -1.807628459347    -4.542941028334
H      1.321134614491    -2.291649379869    -2.245424165166
O      0.807654154514    -0.470158494607    -0.479780836589
H      0.331066149601    -1.592235711835     0.382490573608

