# STO-3G

title

0 1
C      0.017745289594     3.092310615679    -0.241832046442
C      1.288759719059     3.740436932877    -0.080734342441
C      1.894845905108     4.418100914905    -1.178025967565
C      1.259993179713     4.449284295380    -2.421304611554
C      0.010386180708     3.794562386852    -2.595745274410
C     -0.594165393145     3.118236786160    -1.534459793719
H     -2.100496445670    -2.426120034926     2.126524359105
H      1.713432347960     3.871424072076     0.911846648677
H      2.845307365878     4.924575043786    -1.028959988274
H      1.714181175106     4.979809487471    -3.254847350524
H     -0.478716776671     3.815335537243    -3.566896359811
H     -1.533460924139     2.591248288457    -1.674363809443
C     -0.681964271589     2.445933233692     0.963084030845
H     -0.920434552086     3.182547388800     1.737246333340
H     -1.618369003972     1.985124453053     0.652618412639
C      0.292536876567     1.343698696317     1.434736937926
H     -0.103037476345     0.339078795211     1.332442093506
C      1.038707104289     1.476036903383     2.702788484173
O      1.498038316883     0.436777295787     3.242986380987
O      1.388822198393     2.753843752664     3.171601838970
C      2.122651316792     2.790961746427     4.403663669614
H      2.327846759951     3.848183870809     4.678474788902
H      1.534762686835     2.326830868011     5.228011661932
H      3.097757386009     2.262487336115     4.301715030780
Pd     1.500799624950     1.359421102986    -0.232920270381
C     -1.663979029068    -0.932425259948    -0.358221603007
O     -0.573741718764    -1.641398450150     0.013502945945
O     -1.687003307154    -0.051001704254    -1.240493860614
C     -2.878543764127    -1.398437876242     0.491555084851
H     -3.127044340150    -2.410412641153     0.143778936568
C     -4.108853984577    -0.530107849048     0.334595914674
H     -4.904413511775    -0.885256068441     1.021600635255
H     -3.871651581312     0.525635403325     0.572464792777
H     -4.479232836016    -0.583953740040    -0.709640681760
N     -2.512582117183    -1.526295159302     1.908260375150
C     -2.266860415007    -0.506207442519     2.779231570069
O     -2.436633627162     0.714475221096     2.552858966745
C     -1.740454036797    -0.925562698461     4.096380269544
H     -2.466757450271    -1.623742615307     4.545055267199
H     -0.768117106849    -1.420798692908     3.929146371589
H     -1.610720038449    -0.034028805291     4.735082458533
N      2.502702901437     0.637244220783    -2.118055422793
C      3.055020454359     0.910857425933    -3.337244603425
C      3.341687551277    -0.126804260032    -4.207328511123
C      3.071015943424    -1.436947660743    -3.857467972459
C      2.512230715851    -1.685415299166    -2.628498601352
C      2.242045038179    -0.593672680780    -1.778508776882
H      3.265580086119     1.936530661358    -3.617349832075
H      3.776751606576     0.093877280598    -5.168100524867
H      3.294029203983    -2.251790018413    -4.541119017092
H      2.274684509054    -2.673574320175    -2.290563304663
O      1.683491103301    -0.816914511488    -0.598831010367
H      0.367150018251    -1.347685866133    -0.342610600279

