# STO-3G

title

0 1
C      2.268324812089     1.880797390614     1.049245268081
C      2.200577378170     3.312902966004     1.034858791600
C      3.012850000673     4.062847863787     0.139610485052
C      3.875839083249     3.405674126690    -0.741693278749
C      3.940310596073     1.986952149098    -0.748063970058
C      3.148749780829     1.236762361816     0.125058546309
H     -1.576241099063    -1.872297394848     1.308428245167
H      1.644830321324     3.836025719303     1.811191172733
H      2.964525508075     5.148469800253     0.162418980747
H      4.507789165049     3.977844154824    -1.416410759332
H      4.613079826130     1.478990963392    -1.434369262521
H      3.206656068902     0.151123986995     0.125078577198
C      1.475817705282     1.084640608581     2.098556372930
H      1.741917476876     0.027368195344     2.042269487176
H      1.716962575207     1.438054764977     3.107533771639
C     -0.009831029411     1.291469051377     1.708533222631
H     -0.496239935901     0.393867536950     1.339792911317
C     -0.922371965545     2.087838255864     2.554199684455
O     -0.482623399545     3.112264517225     3.137512783890
O     -2.286274101220     1.760566562939     2.576960153572
C     -3.127087539440     2.616157571413     3.363502726041
H     -4.176393962074     2.253570937883     3.305344617243
H     -2.814767154886     2.606620880135     4.432423406136
H     -3.101055552791     3.660767018541     2.978081155731
Pd     0.319003896615     2.287047331810    -0.063740988051
C     -0.425603833774    -1.371675566495    -0.999341606513
O     -1.487410755726    -0.645211272381    -0.561041513218
O      0.236033611223    -1.130600661762    -2.025155095196
C     -0.118176266967    -2.541715166757    -0.037261815759
H      0.967900252732    -2.657833067195     0.020917339560
C     -0.726579024706    -3.843564478064    -0.510714569491
H     -0.435431678691    -4.659281291882     0.183041500918
H     -1.832345589423    -3.754066294466    -0.510016714676
H     -0.368481141547    -4.087847071539    -1.532220301735
N     -0.636927475633    -2.256730276548     1.299392817894
C      0.180074421234    -2.158480413624     2.378628930212
O      1.428180639993    -2.303149478692     2.349766993890
C     -0.466646908733    -1.845121963873     3.672504183181
H     -0.234663570045    -2.673395751517     4.362652358987
H     -0.030768840421    -0.905100157766     4.045765807909
H     -1.560427814295    -1.746572167627     3.554037198395
N      0.150038401589     2.937598901073    -2.202809233017
C      0.702448076228     3.512983239875    -3.311763445737
C      0.032446400420     3.448746797699    -4.521415210916
C     -1.185391324954     2.800665623083    -4.620532366846
C     -1.717938575821     2.228799641788    -3.491683537745
C     -0.995639480402     2.324748851052    -2.285889216813
H      1.658977882850     4.017644062641    -3.239497761770
H      0.472629059831     3.901885970095    -5.394279781242
H     -1.708279655675     2.743601758808    -5.571509056190
H     -2.651992838842     1.705403556586    -3.494509808760
O     -1.481759418473     1.757051001113    -1.188921359989
H     -1.590320000842     0.310831502670    -0.963224954376

