# STO-3G

title

0 1
C      0.376028286363     3.768189914391     0.779979010912
C      1.723810338578     4.002084534971     0.354617290778
C      1.982610304402     4.715960335112    -0.848830177402
C      0.921096923472     5.186971908235    -1.626534673994
C     -0.419194594782     4.950731336882    -1.219203843399
C     -0.690037657574     4.246856577860    -0.043021134740
H     -1.674462823197    -1.164633366588    -0.251028648901
H      2.550506922402     3.770285047491     1.024976202947
H      3.011770148763     4.903139231755    -1.143808773624
H      1.118461822520     5.744331533496    -2.538773462463
H     -1.240628408306     5.326781931392    -1.824093546062
H     -1.711695669294     4.060422103161     0.277581321213
C      0.102616050000     3.094393239598     2.134283115257
H      0.632041690701     3.614078094952     2.939157952307
H     -0.969767981194     3.103127705262     2.337377937848
C      0.558738600250     1.635501894892     1.937052753797
H     -0.274616099638     0.947355679137     1.909051849961
C      1.706950359299     1.065980035853     2.663906687666
O      2.784266448816     1.714276920545     2.706713392167
O      1.642725010292    -0.281466546992     3.045202372550
C      2.842009314158    -0.846254993338     3.590914419684
H      2.656733893380    -1.911956729613     3.851143547037
H      3.669710350663    -0.813440303900     2.846721210600
H      3.149497384050    -0.309165094219     4.516463427815
Pd     1.059308403914     1.729438914514    -0.043961972165
C     -0.786090975692    -2.310469334705     1.930772516261
O      0.180675758867    -2.277501966231     0.981800143956
O     -0.815957122076    -3.190644428224     2.806136085368
C     -1.895719064217    -1.208515274038     1.854943735568
H     -1.659452421201    -0.438580538689     2.599971802728
C     -3.267333052173    -1.763008792462     2.176693883191
H     -4.016397590473    -0.944374003320     2.153818188597
H     -3.542944812259    -2.523704618145     1.418245638686
H     -3.271912354242    -2.225611852632     3.185655974100
N     -1.961933520837    -0.585978840605     0.529122110560
C     -2.297663607924     0.708225393396     0.312335890201
O     -2.534961698734     1.555690792471     1.210906024471
C     -2.381495224854     1.110790021016    -1.107341017155
H     -2.683328661841     2.170682164542    -1.162226153544
H     -1.393241628386     0.963326021876    -1.570133610779
H     -3.137307424497     0.472982059418    -1.598006518451
N      1.419569467350     0.919175864615    -2.200654933430
C      1.751621920720     1.061071103005    -3.519042864921
C      1.886825238730    -0.061993562463    -4.316967682102
C      1.692897751470    -1.327923002007    -3.794835663162
C      1.365321029611    -1.445109549898    -2.467359796959
C      1.243173030625    -0.270411440233    -1.699499874187
H      1.901758957502     2.050605203493    -3.935070496273
H      2.146218108603     0.055709981155    -5.356440367623
H      1.798328273100    -2.210047037175    -4.421020617063
H      1.201362986482    -2.393209315854    -1.993676065548
O      0.927819352544    -0.365095894444    -0.419733911670
H      0.434986252258    -1.437556955018     0.427203813604

