# STO-3G

title

0 1
C      0.043152001343     3.048796042550     0.221650472950
C      1.355825028502     3.606648614807     0.411869650134
C      1.913770184186     4.469419883094    -0.576498808273
C      1.195760068069     4.769333156435    -1.736391337376
C     -0.095954091654     4.211511965942    -1.932655892444
C     -0.659216182394     3.357714352163    -0.980740800567
H     -3.666097792619    -0.242509934811     1.207324167621
H      1.844217110685     3.540754615423     1.382400252540
H      2.896853721017     4.901378459842    -0.406803093736
H      1.618079515655     5.433037623137    -2.486466226451
H     -0.652494541080     4.444510816744    -2.837161116585
H     -1.637436382235     2.915016994396    -1.151741258969
C     -0.574604363357     2.173985282212     1.321427059399
H     -0.798913222018     2.752543511464     2.224587357655
H     -1.512913562009     1.743434691295     0.962225856370
C      0.477100294997     1.061446956065     1.522136300246
H      0.131415529129     0.062128583837     1.306534244908
C      1.375193638972     1.030339703761     2.692180770515
O      2.381342139461     0.279512510837     2.615954885283
O      1.351419739098     2.103737719400     3.599706977846
C      2.296448645855     2.030485548308     4.676387440455
H      2.167411064756     2.912376716198     5.340285924882
H      2.132123444492     1.111448200445     5.284190571997
H      3.341108007504     2.037042535742     4.290435784186
Pd     1.578034401713     1.321993872766    -0.187441601045
C     -2.205717844544    -0.339403945795    -0.828657024762
O     -1.165808682681    -0.243020762540    -1.668761825639
O     -3.265370790943     0.302727085429    -0.989470325226
C     -2.045473455221    -1.281550681085     0.400426399555
H     -0.998186631191    -1.396853530345     0.688037565203
C     -2.620084562082    -2.655146269794     0.130932499767
H     -2.487707851003    -3.292687749090     1.029731804460
H     -3.706013243931    -2.564067419199    -0.082061989110
H     -2.106306298809    -3.126838528616    -0.731707754824
N     -2.796547014288    -0.678916781647     1.500258694102
C     -2.299454426750    -0.503715611485     2.750078616064
O     -1.147001271952    -0.828752976493     3.126542890375
C     -3.216802678351     0.160181794681     3.698495596651
H     -2.710167378834     0.257656771078     4.674457555674
H     -3.469058308556     1.152159572141     3.288367956661
H     -4.122363690522    -0.464253341111     3.790984642687
N      2.510416596109     0.778319852486    -2.162554409207
C      3.266498335219     1.145257870388    -3.240186612861
C      3.455556109085     0.252753193919    -4.280114669823
C      2.885403526504    -1.005689702333    -4.242851863040
C      2.129261765137    -1.350271038827    -3.150393843562
C      1.971218919899    -0.408128935778    -2.113160199956
H      3.711760405213     2.132737344110    -3.277261614271
H      4.051310424669     0.547605260966    -5.128422404516
H      3.031527964010    -1.706133849206    -5.060944955399
H      1.659662747896    -2.307941807084    -3.054847244854
O      1.218160343846    -0.731690654767    -1.067098277896
H     -0.229213147649    -0.590155702713    -1.368928376593

