# STO-3G

title

0 1
C      0.350388618347     3.464993584193     0.769554062533
C      1.721059946566     3.764355018743     0.477665692050
C      2.081687119218     4.357277760622    -0.762921385342
C      1.099937548680     4.654137867120    -1.712681185326
C     -0.260956693426     4.365079797093    -1.435815104441
C     -0.627434336018     3.780019117715    -0.221767822385
H     -3.398314937035    -2.065909984631     0.593284498649
H      2.478998089724     3.677029483881     1.251817801605
H      3.126482013389     4.587201647204    -0.956674243183
H      1.374779686465     5.113102073884    -2.659320979412
H     -1.025412666080     4.589431430531    -2.175018430942
H     -1.673076298579     3.563253432602    -0.020833577445
C     -0.050690083273     2.914363067852     2.152476384016
H      0.155038090769     3.655063082731     2.934417186837
H     -1.121279848467     2.698834225543     2.150767946471
C      0.717654180872     1.580530624852     2.321370100112
H      0.056819535439     0.721114642619     2.393505209241
C      1.861132298426     1.463366679723     3.251517998565
O      2.136372693231     0.339624016014     3.742936862202
O      2.642146324491     2.596582264150     3.536930179422
C      3.737365124687     2.392325883139     4.441074056618
H      4.276440179491     3.352662200877     4.591283564319
H      3.372007923213     2.040862709636     5.432918646705
H      4.458318731046     1.649376697872     4.029743838052
Pd     1.254820070528     1.394480591031     0.342561282819
C     -1.984438326357    -0.247982385499    -1.605147658744
O     -1.907403926936     1.028221916132    -1.110781163016
O     -2.265478697692    -0.470294974495    -2.789612000232
C     -1.692372016260    -1.340394154785    -0.518177022511
H     -0.716256805533    -1.114345689736    -0.065569595541
C     -1.645717209734    -2.737826610965    -1.096429692464
H     -1.387701337212    -3.463784864900    -0.297824996221
H     -2.637937022461    -2.997310634203    -1.519805679119
H     -0.885152648837    -2.795782193705    -1.901127705498
N     -2.711948338494    -1.323880691872     0.556881242806
C     -2.754669518372    -0.363955191007     1.501498590030
O     -2.037927112996     0.675334549192     1.491778042276
C     -3.717310807434    -0.563697393238     2.599936971334
H     -3.650509910057     0.288766899881     3.298360817218
H     -4.726553764849    -0.624358374898     2.158334918386
H     -3.460682546377    -1.506618953293     3.114262567773
N      1.542382336865     0.561620899932    -1.706178214025
C      1.627305650115     0.715719170210    -3.060237761735
C      1.799481582721    -0.397472976623    -3.863969953155
C      1.878131897691    -1.663563823746    -3.314101325585
C      1.780216567506    -1.795121895430    -1.951237850188
C      1.598705123503    -0.634182150982    -1.171927637735
H      1.565127022469     1.705703948313    -3.497155827164
H      1.859242512624    -0.271597422994    -4.932409876006
H      2.008038762644    -2.536526456063    -3.948057322859
H      1.825474694805    -2.742524444425    -1.453740021228
O      1.451766323668    -0.749945208321     0.134828452203
H     -1.696971552848     1.046909071763    -0.126894511656

