# STO-3G

title

0 1
C      2.823207707664     1.304854532850     0.603290704684
C      3.488393444809     2.448378340169     0.062125539285
C      4.619843408200     2.289655748154    -0.741598445413
C      5.131023824432     0.988875705311    -1.011292403722
C      4.509220385274    -0.142055954457    -0.473390727332
C      3.342377411147    -0.000072844434     0.336202624517
H      2.032037379384     1.435492230609     1.333459392091
H      3.096740574749     3.439542530794     0.273086847013
H      5.113151424909     3.160597499911    -1.164270626441
H      6.013631874286     0.877485355432    -1.635577579405
H      4.908756522303    -1.134067963185    -0.663920822204
H      2.945761658290    -0.867106481350     0.856212242176
C      0.152096921859     0.002477643284     0.308180415928
H      0.719535305118    -0.332949792562     1.178358981679
H     -0.445800968744    -0.778422908572    -0.146634612019
C     -0.691516092682     1.251370057034     0.626105516845
H     -0.433109191210     1.558960660365     1.638872398977
C     -0.588402083471     2.450844227914    -0.241120652107
O      0.372634676226     2.514966438434    -1.063486450460
O     -1.281131488111     3.618473879306     0.128421142222
C     -1.052729806863     4.774747529566    -0.687602724308
H     -1.670132961829     5.616690046776    -0.306471965612
H      0.016244681676     5.082629935086    -0.646639301585
H     -1.345806599172     4.577384076564    -1.742897486539
Pd     1.540682621756     0.420553199161    -1.141238712410
C     -3.254898324807     0.736574508474     0.059991538491
O     -4.346818379813     0.856292679971     0.617244723532
O     -2.113727748594     0.815557853583     0.881981468444
C     -3.092594509962     0.418576350730    -1.460963365751
H     -3.576541942663     1.258562490007    -1.998016315664
C     -3.851701080433    -0.852305232502    -1.797776049649
H     -3.773562144708    -1.070772015069    -2.880317894867
H     -3.415016121365    -1.699041612213    -1.227802234681
H     -4.923583612161    -0.744942512720    -1.528318179249
N     -1.705912823544     0.197849631407    -1.735877833908
C     -0.971238142999     0.345951052275    -2.780771202711
O      0.344044100690     0.135974840031    -2.768640397919
C     -1.536019901706     0.783700728450    -4.077060988608
H     -2.278566418897     0.036942414408    -4.399516205633
H     -2.000381614139     1.771761057064    -3.927426749137
H     -0.722683054738     0.855891422240    -4.821801038598
N      0.187493517645     0.513182586439     3.570535413700
C      1.208543173100     0.755318363999     4.449236914773
C      1.514293558812    -0.170200893211     5.430972894572
C      0.782120410329    -1.333832985875     5.546739707653
C     -0.243551830956    -1.545658553427     4.663390418422
C     -0.513604938664    -0.565779713274     3.682512739098
H      1.787880319335     1.666883435687     4.361118468650
H      2.322802090206     0.028784734534     6.114439878002
H      1.010142457073    -2.061779879979     6.320582739671
H     -0.865155184764    -2.417610421831     4.698807716794
O     -1.544667120740    -0.880624154320     2.885106996930
H     -1.827074054863    -0.188184681330     2.221487440452

