# STO-3G

title

0 1
C     -0.984501268260    -2.308869694937    -3.112434075133
C     -1.851739032194    -3.428232498877    -2.974584992596
C     -3.236955534129    -3.253658763615    -3.043687190959
C     -3.790633165851    -1.963568068604    -3.258416171637
C     -2.952595412577    -0.856175993502    -3.418132196821
C     -1.538959361365    -1.014687907796    -3.346856982578
H      0.091377878405    -2.445944533579    -3.150654679478
H     -1.434997412504    -4.421069545287    -2.827626258188
H     -3.897248879754    -4.110827790438    -2.936848174733
H     -4.869924506487    -1.844387508797    -3.311758214384
H     -3.370232208450     0.126879959711    -3.618810916592
H     -0.879221048008    -0.190225333748    -3.596455909845
C     -0.262373791115    -3.844319059990     1.151516040503
H     -0.838825032852    -4.750579080613     1.330289132721
H     -0.379440483427    -3.024139609280     1.855204236798
C      0.613314383190    -3.717550162683     0.121076907892
H      1.166031704712    -2.794890715464     0.013438945382
C      0.876156132840    -4.742122916073    -0.902878230801
O      0.178171182001    -5.791376927207    -0.934357295129
O      1.757594500101    -4.424118509566    -1.950795926623
C      1.912761837960    -5.424713225004    -2.967126140895
H      2.638049511504    -5.066336946405    -3.729236007499
H      2.305008706902    -6.372515291924    -2.533072004808
H      0.943787545375    -5.625069469488    -3.478135308406
Pd    -0.671589618112    -1.029475396825    -1.082162073470
C      0.148830047591     0.470439303065     1.351862716250
O      0.032258306444    -0.753448374700     0.785718631016
O     -0.029728473957     0.633025680702     2.579080955992
C      0.589176843438     1.656623786573     0.437820160844
H      0.902381964188     2.431699971807     1.144786260621
C     -0.560953950455     2.218691790671    -0.386359591517
H     -0.215705409099     3.130983786823    -0.916078838747
H     -0.897191161054     1.481993464534    -1.138093004966
H     -1.408727904414     2.488256183245     0.277284162519
N      1.731889122102     1.379062744537    -0.432130984820
C      1.819094624444     0.550144389334    -1.404514622075
O      0.912281422651    -0.289983549824    -1.982622550324
C      3.118340762097     0.499657125628    -2.093558158811
H      2.957554360931     0.791876250660    -3.143991974213
H      3.821672726494     1.199108513209    -1.604652045081
H      3.501831535131    -0.532814160302    -2.027436205020
N     -2.769095093727    -1.471778082485     2.117490943678
C     -3.227666953381    -0.581214672479     3.051154167124
C     -3.799823711125     0.613649723834     2.639248535148
C     -3.894328860848     0.917837980853     1.295354438071
C     -3.397207294056     0.014212980568     0.388164757429
C     -2.837226925699    -1.180209001657     0.886035273640
H     -3.154392880390    -0.818778887834     4.105960622889
H     -4.161895340661     1.307333420148     3.379915963154
H     -4.345507500988     1.850048665539     0.966438148563
H     -3.452512473465     0.169271908488    -0.668690199816
O     -2.306712770885    -2.010499280306    -0.087865276065
H     -1.871554151825    -2.800743277540     0.331538935534

