# STO-3G

title

0 1
C      1.082174859674     3.352516819282    -0.720786527558
C      2.022612517633     4.108989166202     0.004177688411
C      2.453721033365     5.352592785725    -0.506218465167
C      1.948472729320     5.836113445395    -1.728110230415
C      1.008668381903     5.071278050310    -2.446192541274
C      0.573582345000     3.825451004573    -1.947890334198
H     -1.227738441382    -0.471653273636     2.189384974256
H      2.424978720784     3.747491835723     0.947644501258
H      3.179382059342     5.937365239321     0.055220626665
H      2.281411592131     6.796314620766    -2.114704907129
H      0.610480206416     5.437944513184    -3.390071079198
H     -0.155927573114     3.244860588004    -2.509411937737
C     -0.349613371861     2.263438111682     1.836927202007
H      0.122904570391     3.195054332557     2.129997484624
H     -0.124549125889     1.391069405977     2.446014876494
C     -1.396462190772     2.238542032795     0.910433881448
H     -1.947849716680     1.320380365130     0.737326071844
C     -1.981191156074     3.442150176998     0.294321369882
O     -2.750778496946     3.298489573931    -0.690708508115
O     -1.516383339953     4.711511773802     0.681158525669
C     -2.016317583032     5.822176254739    -0.075809129044
H     -1.578914825148     6.763327550695     0.321059074696
H     -1.725477488796     5.732811472155    -1.146894729094
H     -3.124963672423     5.889865690570     0.004358052734
Pd     0.534808316182     1.551490743872    -0.104186769631
C     -2.411827182292    -2.133609971411     1.146717852775
O     -3.599415987174    -2.212064985586     1.465603341684
O     -1.917520412655    -0.955812878237     0.584496150554
C     -1.299961743378    -3.199747526969     1.409433166673
H     -0.681552030708    -3.252836976822     0.499462125030
C     -1.884099305314    -4.568430683210     1.666045891640
H     -1.066621236497    -5.312939962729     1.762975201350
H     -2.458152459133    -4.544200053858     2.615649945838
H     -2.555785762938    -4.867331137503     0.835137049026
N     -0.386509495903    -2.934678757811     2.524305846103
C     -0.122032511626    -1.844124454831     3.131836228310
O     -0.629408044924    -0.566944809246     2.971307569605
C      0.868488817444    -1.937777790470     4.208473182819
H      0.484293634717    -2.659736085203     4.949004699708
H      1.806279814381    -2.310283341964     3.764461827611
H      1.017423019036    -0.947403917804     4.673575294689
N      1.704351106785     0.489627605131    -1.443119936563
C      2.625770655703     0.692006593783    -2.429730988867
C      3.150131911325    -0.396838243521    -3.100670068853
C      2.756393424159    -1.683019899341    -2.780390339219
C      1.829223762268    -1.859172069589    -1.782667381833
C      1.314127163787    -0.724366050067    -1.123467231424
H      2.938684799061     1.698683405536    -2.683047818194
H      3.877162536720    -0.236437650282    -3.880123444896
H      3.175108401330    -2.537689844848    -3.305339803784
H      1.493600013648    -2.828510974780    -1.474763166748
O      0.444919707291    -0.874236452329    -0.166242245725
H     -0.972930530688    -1.029249548468     0.178982532805

