# STO-3G

title

0 1
C      1.170583622161     3.059394679925    -0.768923527140
C      2.333867900549     3.484329271439    -0.099330972385
C      2.890827483022     4.744387352826    -0.407793422546
C      2.289880891852     5.572175851426    -1.374915025682
C      1.126131871817     5.138083698252    -2.039383687916
C      0.562245557699     3.880108746732    -1.740734095244
H     -2.330751389927    -1.423463980285     0.792838607136
H      2.811477323838     2.855081815781     0.648235981637
H      3.789067366528     5.072333468113     0.111136678831
H      2.721763411385     6.542630189488    -1.606980167917
H      0.652406990330     5.772592293844    -2.785590517290
H     -0.341317512199     3.558914200148    -2.255665063798
C      0.035583879227     1.473750748514     1.725587429218
H      0.796621938726     2.108798979205     2.166148596560
H      0.075210889663     0.421281946161     1.995245071540
C     -1.101864822297     1.991028893428     1.098345895120
H     -1.907577986515     1.313248514004     0.844890329895
C     -1.415522694073     3.427254542535     1.005331179745
O     -2.391453497224     3.788745671113     0.298825469037
O     -0.552596368322     4.363221227175     1.601871094742
C     -0.828281454570     5.741428616671     1.316916838192
H     -0.080946445545     6.380420094414     1.834299405920
H     -0.752283150337     5.940696239022     0.223877852027
H     -1.842693628867     6.026524955683     1.677269313950
Pd     0.418203052740     1.254072192665    -0.453320742179
C     -1.157477242839    -3.478267329306     1.053833494561
O     -1.653914680763    -4.572439384462     1.329806415079
O     -1.543459518875    -2.777134676543    -0.079574341035
C     -0.176242576116    -2.684012168110     1.979905979809
H      0.460713226146    -2.055149989716     1.337017256980
C      0.708999772950    -3.602414012157     2.785082354573
H      1.421252569936    -3.001916530774     3.387705688416
H      0.076478010352    -4.200218703478     3.475100002301
H      1.273208380178    -4.283940704640     2.116069267753
N     -0.878675007381    -1.833014608655     2.960672674632
C     -1.866787412560    -1.056344758931     2.711444297129
O     -2.516902177565    -0.779321479029     1.528223101017
C     -2.385919866349    -0.296588370146     3.852761363373
H     -2.736411696705    -1.026782804284     4.602133293420
H     -1.559190817102     0.304710102067     4.264118620724
H     -3.219346572709     0.351112281384     3.526051753993
N      1.204162732523     0.341399262323    -2.153352205295
C      1.961616264954     0.588140151645    -3.261734285393
C      2.210676324134    -0.438764918545    -4.153693209885
C      1.699259667493    -1.705755747547    -3.937230708976
C      0.943352096035    -1.928388064238    -2.811618509538
C      0.715844359389    -0.854478596892    -1.927881827274
H      2.360733308641     1.580808664131    -3.437256100992
H      2.806409827712    -0.243333204171    -5.030641023466
H      1.891596144784    -2.509092766161    -4.643849676177
H      0.513871817151    -2.885791411188    -2.593209915888
O      0.005354172671    -1.030124125854    -0.845226866780
H     -0.840611921189    -2.087490497661    -0.447894763030

