# STO-3G

title

0 1
C      1.499337839331     2.811680103103    -0.990379728433
C      2.774148629209     2.438747007114    -0.522029712661
C      3.869902149828     3.293064098413    -0.770235170395
C      3.693903285981     4.495552743254    -1.482513323299
C      2.413583994194     4.850602531845    -1.949341822143
C      1.306427438207     4.009745631549    -1.704231647116
H     -1.347021131643    -1.133876884809     2.294103769481
H      2.913720551812     1.501036202845     0.009854573044
H      4.856686525856     3.012234815899    -0.407619197653
H      4.543271171608     5.148423585085    -1.669940543489
H      2.268846264509     5.778370259399    -2.499522605356
H      0.321474057962     4.293739184120    -2.069873387884
C     -0.478352272768     1.962000270796     1.383491430529
H     -1.121722103356     1.135770377515     1.675995889536
H      0.483654024831     2.018451402135     1.882865814088
C     -0.967335135712     3.037932281786     0.640980785728
H     -0.361001117779     3.922268421065     0.529310474559
C     -2.359403064525     3.172031473770     0.178909215459
O     -2.670931498927     4.190787103552    -0.490322590416
O     -3.224390534209     2.071925832372     0.279867044808
C     -4.530780395713     2.239936450860    -0.287231230400
H     -5.117274451305     1.307607180815    -0.135721177063
H     -5.073639901511     3.076710086835     0.207707524133
H     -4.466139961758     2.433254296734    -1.381997573807
Pd     0.028687523118     1.504582817266    -0.729999164531
C      0.950625621288    -1.098411378577     1.462700321130
O      1.717850625899    -0.496200241638     0.686421880574
O     -0.303259753618    -1.503347423127     1.087887628603
C      1.296087435761    -1.344528708948     2.952937996935
H      2.357930958204    -1.095076734421     3.041265359225
C      1.104299425671    -2.789738897376     3.372020565442
H      1.457529923993    -2.920851268997     4.416012008031
H      0.026905600399    -3.051778072032     3.326794107161
H      1.679354188148    -3.465256112975     2.705946449532
N      0.578124160171    -0.492441827632     3.918341577102
C     -0.682608009941    -0.251247345301     3.949897302508
O     -1.684350325072    -0.637118548089     3.099058500991
C     -1.143936432679     0.572459959933     5.071238009264
H     -0.884625560613     0.041364505594     6.002518457204
H     -0.611059510956     1.536008028580     5.019759522148
H     -2.236175499941     0.723861307837     5.000696109317
N      0.483530726021     0.403969171155    -2.427039377404
C      1.291729865060     0.475536594345    -3.524837562618
C      1.308960708859    -0.575080925825    -4.423712641962
C      0.523779385134    -1.694132849522    -4.217626910842
C     -0.273156969053    -1.742696545220    -3.100393999606
C     -0.261570852607    -0.650925991459    -2.207493932642
H      1.908702644959     1.351724275911    -3.689181611257
H      1.945862746237    -0.517003787546    -5.290910108911
H      0.538777862336    -2.519582844744    -4.924300981822
H     -0.904416557377    -2.578626904074    -2.877958670004
O     -1.004478764109    -0.693405296506    -1.127693251581
H     -0.596891946153    -1.234405434501     0.098339091453

