# STO-3G

title

0 1
C      2.129646824079     0.362855347400     3.623594587075
C      2.516812832462     1.708593057244     3.791269918901
C      2.988600315613     2.144093314399     5.046954987916
C      3.077414399004     1.241920588221     6.125298761388
C      2.689773668543    -0.099425465308     5.946768660795
C      2.212031952111    -0.545599034456     4.695324476294
H     -0.771026606448    -0.130776718657    -1.431355513763
H      2.449324579414     2.415213743587     2.966653730555
H      3.281498359845     3.183458181763     5.178549779413
H      3.438207734312     1.580372462351     7.093474218703
H      2.748336720191    -0.800808469965     6.776388435911
H      1.912044599951    -1.584091690843     4.574936608089
C     -0.430223907863    -1.049053754895     2.299666407885
H     -0.410206963701    -1.539579163771     3.267470843313
H     -0.532418688872    -1.699896963479     1.434751387424
C     -0.621831060756     0.329929434090     2.165649460829
H     -0.817083972555     0.730863287725     1.179506104331
C     -0.868226278802     1.247756782069     3.292563367353
O     -0.985107712907     0.787377911875     4.459032884748
O     -0.881697717318     2.629673663180     3.044001243396
C     -1.017024468117     3.469944074317     4.198927187499
H     -1.012721836758     4.535322477458     3.882635951729
H     -1.977528019279     3.268069136021     4.725495906846
H     -0.168935905767     3.311720618280     4.904312263982
Pd     1.578596758147    -0.231919431548     1.817249061158
C     -0.221744725864    -2.029415395638    -2.753560692564
O     -0.656016545057    -2.266034089212    -3.882755561168
O      0.478609591129    -0.862452097361    -2.481307962893
C     -0.515676682541    -2.893125504411    -1.481923799287
H      0.336271186646    -2.780275787415    -0.791875418104
C     -0.673872700060    -4.355671893186    -1.815853499363
H     -0.828428308613    -4.937438200204    -0.883732844309
H     -1.565297864845    -4.483567458024    -2.465809034439
H      0.225939783345    -4.733898222505    -2.342799696022
N     -1.759286559030    -2.496266320592    -0.794037438152
C     -2.137048780684    -1.300024834168    -0.536087704387
O     -1.528131678147    -0.088067933305    -0.786510184886
C     -3.412601398810    -1.173323185352     0.175594451781
H     -4.191301183002    -1.628165305293    -0.460288514695
H     -3.326516215468    -1.725431367647     1.125630752005
H     -3.638030850638    -0.107548584432     0.359154426512
N      3.483094880778    -0.276005457871     0.977567354884
C      4.797366795068    -0.052619601421     1.270924695242
C      5.750041079752    -0.226129091638     0.283817478870
C      5.386276472955    -0.619973761415    -0.991367988108
C      4.057207287580    -0.844152693748    -1.258416240219
C      3.119636813572    -0.658777556070    -0.222658772081
H      5.086127688935     0.260915846678     2.267830573456
H      6.787668630705    -0.046252104523     0.514300893095
H      6.137229864710    -0.749859104292    -1.766507672144
H      3.713267821166    -1.145426321884    -2.227703349274
O      1.847595753161    -0.866914815161    -0.439742834069
H      1.120955852645    -0.905420430938    -1.650474499806

