# STO-3G

title

0 1
C      0.398469044518     2.877599681153     0.191739546049
C      1.207394426648     3.907009422740    -0.330959457811
C      0.610030851111     5.121694372403    -0.729266345922
C     -0.781707714695     5.302071520695    -0.608766640603
C     -1.577591002177     4.264429590211    -0.086299576978
C     -0.993580213152     3.044749291474     0.319047394533
H     -1.360920873444    -0.608599763162     1.757821792608
H      2.284099897515     3.777958921207    -0.423578146195
H      1.233421514067     5.919475944627    -1.128300636986
H     -1.239645412673     6.239450900680    -0.916090035545
H     -2.653117041677     4.397405944973     0.012382198561
H     -1.611568331885     2.243160122333     0.715748376912
C      0.562336774521     1.146063617755     2.800184387006
H     -0.361925712973     1.710857292344     2.872858172121
H      0.490256409111     0.069400351973     2.914375467705
C      1.811335676385     1.766249432500     2.767313160745
H      2.705362627784     1.156189874459     2.822894819779
C      2.029607019251     3.214886503505     2.920004256514
O      3.189583354289     3.669891173226     2.741997045004
O      0.935203088866     4.064064138531     3.156271351014
C      1.211161578899     5.470662235124     3.126151777432
H      0.271184801563     6.031896870490     3.316446724584
H      1.950049859347     5.747346493879     3.911798122534
H      1.596509508832     5.775212207782     2.126923884404
Pd     1.238236912994     1.142283154010     0.655208374177
C     -0.174722233546    -2.585542187130     1.223380306377
O     -0.130774172804    -1.688508071227     2.123129407474
O      0.912187155666    -3.010225127096     0.585569778480
C     -1.560056189920    -3.068602672476     0.726586997891
H     -2.206369309140    -3.136974863691     1.615835878701
C     -1.529425965993    -4.403616197830     0.024790913002
H     -2.564608859315    -4.704550790468    -0.237899031062
H     -0.941365817575    -4.311321446724    -0.911664088949
H     -1.076079335649    -5.175481406841     0.679653990717
N     -2.107721432921    -2.094138950334    -0.243105945553
C     -2.257617024444    -0.841369466027    -0.003817383492
O     -1.945343115456    -0.104909035458     1.116256976502
C     -2.865083466811    -0.031190979765    -1.064450372899
H     -3.122160640106    -0.681750122140    -1.920490516604
H     -3.773495643138     0.434559492628    -0.649541795215
H     -2.133812336769     0.734888999328    -1.372254886506
N      1.517176749697     0.544294105016    -1.302379579092
C      1.254320087647     0.983553781823    -2.567867581270
C      1.559322883096     0.172444393234    -3.644489666991
C      2.124280461135    -1.074532161391    -3.452781457175
C      2.382453124802    -1.490964006926    -2.169996008132
C      2.057829212724    -0.634167596300    -1.097323267962
H      0.806035232018     1.958316748907    -2.722969261986
H      1.347017418900     0.518118562920    -4.642874795261
H      2.358645076498    -1.712867561050    -4.300575135595
H      2.815093905791    -2.446621396074    -1.954367951879
O      2.273385297764    -1.025737759209     0.135512963278
H      1.663245845528    -2.250761067629     0.516456130318

