# STO-3G

title

0 1
C      1.131086084879     2.965985137401    -0.722462885757
C      2.071611289010     3.487541723357     0.186020806465
C      2.589287537089     4.784497683721    -0.020659553742
C      2.170371682371     5.552753524134    -1.123480076964
C      1.229048106955     5.021456073661    -2.026543974551
C      0.706789384536     3.725596726572    -1.831771294541
H     -2.556568983531    -0.575338515709     2.903321927890
H      2.407944979870     2.905267231017     1.040683737673
H      3.314709753042     5.187506774882     0.682955099184
H      2.570327230644     6.552266244353    -1.275893227620
H      0.895516253456     5.609106394496    -2.879391317492
H     -0.025389198957     3.328793567491    -2.532553315203
C     -0.466681771641     1.385181923235     1.470954370126
H      0.069187687152     2.139741518729     2.036616520417
H     -0.346499861683     0.367538601187     1.826725036821
C     -1.460522012109     1.715769144984     0.549043549216
H     -2.096193832152     0.941466617591     0.139302869494
C     -1.904384413706     3.092567968768     0.272886327367
O     -2.635783671346     3.294829454017    -0.731470285139
O     -1.321393029223     4.159661385005     0.979388954511
C     -1.680765837000     5.476284477576     0.539722096595
H     -1.161322453226     6.228251502716     1.171461623053
H     -1.367588381761     5.638706537196    -0.516317453685
H     -2.778497257976     5.638919320523     0.632230961552
Pd     0.474746928885     1.106038677291    -0.534983256557
C     -2.012128940752    -1.672389592895     0.848757085710
O     -2.930643643138    -1.041602646557     1.426307955391
O     -1.967366449893    -1.708967585974    -0.497548104037
C     -0.876237073910    -2.449305150506     1.598988652207
H     -0.021070960664    -2.478931797195     0.912353955681
C     -1.306077333662    -3.882096264281     1.843344361893
H     -0.456894551420    -4.460619519318     2.264142811074
H     -2.138479848607    -3.890241890257     2.577880321962
H     -1.636590050223    -4.361233299694     0.898497927993
N     -0.365649248073    -1.959280210528     2.874183002844
C     -0.853588414328    -1.148566219612     3.740011832923
O     -1.995551131245    -0.400455854162     3.723845412380
C     -0.046120995589    -0.962291240134     4.950530483270
H      0.045198323552    -1.945360932599     5.442080242715
H      0.945175088215    -0.594518535743     4.640989446395
H     -0.541971327850    -0.238447206752     5.622480461421
N      1.697793869698     0.298262705918    -1.998523894577
C      2.643696102608     0.682424815172    -2.904789153247
C      3.162941889543    -0.253400461858    -3.779609747487
C      2.739065028533    -1.568935001103    -3.743660350072
C      1.789883687007    -1.930801351643    -2.818962814032
C      1.284179385782    -0.948299201664    -1.943373861785
H      2.978289068391     1.713197400994    -2.937718123142
H      3.908021637437     0.051217240084    -4.496613166603
H      3.150885080412    -2.302525834790    -4.431917900453
H      1.426190435644    -2.934350275723    -2.734166393959
O      0.391715168976    -1.272073051755    -1.052454299237
H     -1.008617576768    -1.749265509829    -0.871511657817

