# STO-3G

title

0 1
C      0.644541490860     2.673763529808    -0.792650771533
C      1.499826463900     3.717447622951    -1.192997806118
C      0.950739260493     4.866766946834    -1.802604381335
C     -0.437467218107     4.964929940941    -2.015295408250
C     -1.281625982935     3.912393323589    -1.610014953569
C     -0.748249686734     2.760277522976    -0.994396527173
H     -1.460246635243    -0.465839594569     0.329765885520
H      2.573935918413     3.649502201746    -1.036184907973
H      1.610595375153     5.676688772001    -2.107503950431
H     -0.856927865598     5.850628205261    -2.486989987477
H     -2.357071849515     3.982710038714    -1.760955317134
H     -1.417983822190     1.969786643830    -0.661892033321
C      1.981688863859     1.436724123750     2.047075155388
H      2.641439806309     2.298120410435     2.031804346463
H      2.458970067572     0.471181242917     2.210704234558
C      0.596042647937     1.557322548206     2.121670618106
H     -0.012914260558     0.690669460503     2.335198794727
C     -0.105314438694     2.849839409371     2.228557734143
O     -1.327068432268     2.861681873463     2.529703527081
O      0.624916829574     4.043590841207     2.086397642385
C     -0.155182616139     5.245176048225     2.023401252442
H      0.520873464368     6.116565021748     1.891172559794
H     -0.852226804700     5.215212989216     1.154737416315
H     -0.736522935576     5.391754542561     2.961840527663
Pd     1.396888698320     0.997233724370    -0.040081276262
C      0.135561350568    -2.043076245455     1.101043983970
O     -0.153907212978    -1.255608597833     0.145440582855
O      1.376206386211    -2.487197120579     1.281196810031
C     -0.899603715640    -2.471823935712     2.166609200744
H     -0.322580235242    -2.879066549933     3.003053211105
C     -1.801977779364    -3.571780006338     1.642137271007
H     -2.475305901912    -3.917473257316     2.454242057214
H     -2.421983180243    -3.172231663837     0.812386597585
H     -1.200041704225    -4.430561484677     1.279721598400
N     -1.773136958954    -1.422063392327     2.702818518357
C     -2.334666941589    -0.431297997123     2.104256886486
O     -2.206853511210     0.019726014078     0.818073849546
C     -3.271799124243     0.347411553508     2.919027436734
H     -4.069494878304    -0.332345810554     3.259926689904
H     -2.710515533140     0.750490472346     3.778122573406
H     -3.687502040027     1.176231600273     2.317816335271
N      1.952203555705     0.228968811768    -1.873238820525
C      1.776646422230     0.515841507053    -3.196046669786
C      2.291038981456    -0.342500153121    -4.150017100627
C      2.969268756335    -1.487647630818    -3.777870536468
C      3.129569054889    -1.753872310943    -2.440186933828
C      2.592764278252    -0.852897936168    -1.495755947967
H      1.240690978779     1.410629187571    -3.491830559981
H      2.149729960729    -0.115674548324    -5.193833114870
H      3.368331350605    -2.163640009054    -4.529351539157
H      3.646069828590    -2.621639139762    -2.085418196503
O      2.739441247273    -1.099377212390    -0.219927994567
H      2.050403114485    -2.017613994892     0.597428579884

