# STO-3G

title

0 1
C      1.090732304459     3.308968714006    -0.672056665674
C      2.023492742937     4.076995227837     0.054085533917
C      2.457224914539     5.320099914191    -0.454813620632
C      1.963344671548     5.799638296195    -1.682930468324
C      1.032969918250     5.028458681458    -2.406788981168
C      0.597400423495     3.783800123184    -1.906700484166
H     -1.338687864935    -0.533551544764     2.392350981261
H      2.419434250557     3.721214876827     1.002836282306
H      3.176723707994     5.908032691978     0.111770037945
H      2.298308970657     6.759175578436    -2.070056651715
H      0.644018151293     5.390248316651    -3.356798126844
H     -0.123075338893     3.199142084779    -2.476145848843
C     -0.275170886345     2.188875672784     1.924404367443
H      0.256108421559     3.079819873958     2.242443872923
H     -0.083984689218     1.277077184930     2.486485351620
C     -1.342312190335     2.256231725139     1.024246517018
H     -1.938891958613     1.372309432457     0.844316976519
C     -1.882060202268     3.506797402133     0.466539914637
O     -2.707590832637     3.435318709379    -0.481911390455
O     -1.345362482228     4.739197491221     0.879773945425
C     -1.797666471093     5.894943059319     0.161789344699
H     -1.302466905319     6.799784966152     0.574665180433
H     -1.530050142587     5.818622928078    -0.916310385230
H     -2.899291835381     6.019901625786     0.264836235740
Pd     0.530521911409     1.508752617960    -0.052213311527
C     -1.871417740447    -1.812538989160     0.483160752819
O     -2.194366456852    -0.737845570672     1.043091918681
O     -2.135876262896    -1.997639032210    -0.845488314775
C     -1.253577267220    -3.063237098785     1.147660769847
H     -0.668887751858    -3.538324570078     0.351883361481
C     -2.339572493036    -4.037806931540     1.562725021406
H     -1.875246507654    -4.984138509948     1.911049626809
H     -2.917753130155    -3.598124666711     2.401339981319
H     -3.016440933402    -4.259929242518     0.712051474051
N     -0.378061083709    -2.922558764959     2.296674196990
C     -0.133206215575    -1.941129250089     3.076199800006
O     -0.651464956299    -0.670672434673     3.110428657617
C      0.854748566278    -2.199938354816     4.129059649345
H      0.478896736927    -3.039417131984     4.737047604950
H      1.797999958059    -2.477774122850     3.631079391140
H      0.987516177797    -1.295874342189     4.748772634862
N      1.700407333448     0.420697264892    -1.356334726891
C      2.643823453716     0.548260704722    -2.332598076934
C      3.196567162436    -0.588359128888    -2.893467947277
C      2.809473332431    -1.847997866571    -2.472041004136
C      1.859859986132    -1.952270024466    -1.486277378985
C      1.314933322762    -0.773622828705    -0.934953526098
H      2.951282495789     1.533199441361    -2.665201361773
H      3.942072552239    -0.486702658008    -3.664761157678
H      3.251699392324    -2.738781479561    -2.910074082001
H      1.525639135331    -2.893042487728    -1.098444130462
O      0.425988300223    -0.841090915654     0.007106253341
H     -2.397303166436    -1.139327911767    -1.251349606443

