# STO-3G

title

0 1
C      0.489846473084     2.821335100302     0.018368374170
C      1.324788797014     3.951685264320    -0.098331226601
C      0.748339231070     5.224134677162    -0.293504512439
C     -0.650964536014     5.364795684899    -0.372714341792
C     -1.473441908770     4.228826761095    -0.251382175422
C     -0.910767120295     2.948980148392    -0.051196832037
H     -1.615410287119    -0.389734734920    -0.318889909089
H      2.406455321639     3.852960637105    -0.032060818968
H      1.392927807295     6.096852095290    -0.379285688781
H     -1.094364968918     6.346269626639    -0.524318163872
H     -2.555585587625     4.327930084711    -0.306661194868
H     -1.565299175197     2.086873573820     0.049784086851
C      0.271815226865     0.411259871463     2.051232367112
H     -0.721105641338     0.845406105546     2.046212473432
H      0.314588309662    -0.668218007944     1.935749984344
C      1.405414937589     1.117141123749     2.461617626333
H      2.344247092051     0.590522854356     2.581719209704
C      1.379944460599     2.483157800766     3.012411050016
O      2.474277848553     3.055612141415     3.254275581694
O      0.149404221067     3.131207975963     3.212575749256
C      0.220487137707     4.519945045471     3.561650561234
H     -0.809012431311     4.921273335994     3.678458328110
H      0.763657029789     4.661219165710     4.523284110800
H      0.725587099318     5.102067413832     2.757828144982
Pd     1.339134073695     1.034145319767     0.195181526663
C     -0.106534183847    -2.213112315104    -0.234757283568
O     -0.298967410555    -1.089278181895    -0.798326991287
O      1.113082090038    -2.710737196936    -0.050782518780
C     -1.258963258473    -3.042757358314     0.379264915175
H     -0.788910667637    -3.863463311777     0.928977685600
C     -2.150011090267    -3.636647801575    -0.693906247520
H     -2.921022146216    -4.280062894155    -0.220893494105
H     -2.658311167562    -2.817635351831    -1.244729582477
H     -1.551902368892    -4.246805799483    -1.401712545975
N     -2.129812485833    -2.324795551966     1.321292884926
C     -2.593781820827    -1.130501511470     1.241868776945
O     -2.359109537979    -0.139075632730     0.324367235683
C     -3.529232135298    -0.742403501622     2.302638996464
H     -3.004539379864    -0.842077464201     3.267501461917
H     -3.857780486280     0.298952923473     2.140935102983
H     -4.390745355714    -1.431235435391     2.262703967904
N      2.183193581671     0.990741150426    -1.698707344949
C      2.210411579135     1.722983718802    -2.850284699789
C      2.863575074481     1.218527498481    -3.959888072577
C      3.477561020879    -0.019173649197    -3.916723384616
C      3.428159038866    -0.739262918995    -2.748274857735
C      2.753821335132    -0.188599339629    -1.638122749650
H      1.727299535596     2.692635300700    -2.889268225613
H      2.884415823902     1.798243205274    -4.867929203371
H      3.987227790144    -0.415223919660    -4.790999260333
H      3.881145196853    -1.703945135122    -2.648168274137
O      2.680805928997    -0.872633009379    -0.522036986757
H      1.876097851662    -2.012126867124    -0.318653330970

