# STO-3G

title

0 1
C     -0.499512128341     2.251988132323    -1.071007870172
C     -0.184428390519     3.181276890860    -2.084320079728
C     -1.155343724458     3.512808725616    -3.052416178088
C     -2.432628080788     2.921174196176    -3.007952676202
C     -2.737606367448     1.997251826753    -1.991077295313
C     -1.774879494690     1.659669713729    -1.016139307425
H     -0.143289342134    -0.764780073873     2.112886886362
H      0.800564626631     3.643195339275    -2.133234760881
H     -0.909714712262     4.229473444389    -3.833618670926
H     -3.179165530479     3.176877180029    -3.756159684085
H     -3.718755797301     1.529560699978    -1.950912663218
H     -2.037720445709     0.937707968645    -0.248133921561
C     -0.179783130231     2.539556249345     1.921977585504
H      0.114389175737     1.880641853308     2.734359965747
H     -1.213352194546     2.457823429290     1.604696711233
C      0.619871168165     3.582499342345     1.443813330974
H      0.212300638563     4.285495626533     0.732360470774
C      1.929180306161     3.949893577585     2.012831012702
O      2.611786988649     4.829158907957     1.426041718415
O      2.402841194283     3.288275559049     3.156413179707
C      3.777687370364     3.520167799549     3.490020837421
H      4.036021047389     2.939186420197     4.401396321783
H      4.443472658661     3.176733456882     2.665312935246
H      3.961865907844     4.598453271446     3.697668021624
Pd     0.966360302828     1.759555567129     0.186478682720
C     -0.745203986991    -1.750032716434    -0.165432177858
O     -0.735594286624    -1.672696571809    -1.399324464971
O      0.325823467720    -1.292815794632     0.598352628478
C     -1.872075125285    -2.259736404662     0.759631680409
H     -1.384310023358    -2.905263517378     1.510068175785
C     -2.903515101207    -3.062786702950     0.008039900749
H     -3.656782679976    -3.457834897537     0.720743684827
H     -3.417539500669    -2.403972305612    -0.722506215814
H     -2.424885474326    -3.909371403531    -0.526042320014
N     -2.605972305059    -1.158034834910     1.419753807555
C     -2.078950660857    -0.409933422330     2.323368462722
O     -0.784040727025    -0.350140813082     2.763348913373
C     -2.995363289546     0.506041350293     3.009593133050
H     -3.457101830441     1.159132455213     2.250454148089
H     -3.770253330386    -0.110756835416     3.495715514465
H     -2.444226687914     1.095446907858     3.764219215044
N      1.913545549521     0.273844290640    -0.974904757713
C      1.925180037448    -0.142660931756    -2.278951977925
C      3.111868604557    -0.568183384465    -2.842961442925
C      4.288454684993    -0.576231079952    -2.117237657888
C      4.272706173401    -0.119927419117    -0.823040746873
C      3.059317855289     0.334529029307    -0.269728488760
H      1.004970096652    -0.161685752261    -2.852347080059
H      3.110382128462    -0.915083519190    -3.863738836423
H      5.214092804425    -0.922363276645    -2.569639101380
H      5.155498241558    -0.067446439578    -0.218158556495
O      3.033917571459     0.847285808603     0.907869860672
H      0.998199827259    -0.764342121015     0.040374532950

