# STO-3G

title

0 1
C      0.425573744420     3.514313318749    -0.022128208073
C      1.832452025561     3.746611847489     0.150039788192
C      2.653355238258     4.064928807438    -0.960920938028
C      2.091550023225     4.149207547639    -2.241821912945
C      0.709141564817     3.897900494600    -2.431445271021
C     -0.116212923748     3.575426730837    -1.348081043476
H     -2.964568794405     0.191304996800     1.413648696563
H      2.251659553329     3.803870918438     1.152436233952
H      3.711311336284     4.259969178276    -0.805618631861
H      2.715511749892     4.414308899085    -3.092393895209
H      0.277072430265     3.953985318715    -3.427185431755
H     -1.170099192588     3.352232259554    -1.505600428377
C     -0.478351151311     3.321814709680     1.216401911026
H     -0.338882262578     4.141760798846     1.928084127985
H     -1.528148802473     3.280470444389     0.915677165492
C     -0.072554854766     1.942885784276     1.768512370624
H     -0.862078021484     1.204612953770     1.676368286204
C      0.672140077119     1.789541320831     3.033935498176
O      0.646748177339     0.673727754962     3.613798347714
O      1.550767269959     2.805597335683     3.445251468796
C      2.270232769734     2.558019236391     4.661667205659
H      2.919371879779     3.430851801955     4.890628803397
H      1.568579603112     2.415222184801     5.514944131842
H      2.919974792997     1.658567284417     4.563315358201
Pd     1.091655764338     1.376923502457     0.170361624091
C     -2.725233780549     1.200875420097    -0.572079066747
O     -3.183724000526     1.707502150990     0.536896838905
O     -2.589178138583     1.744055132692    -1.711200215072
C     -2.196873460130    -0.292714671472    -0.395413320010
H     -1.158966274286    -0.327830773334    -0.731185600451
C     -3.018489686626    -1.305304852320    -1.158346917712
H     -2.605601124339    -2.321424996879    -0.993069559336
H     -4.065368102880    -1.275672527642    -0.790991005871
H     -2.999523720468    -1.070591063260    -2.242603307781
N     -2.345957149929    -0.571856781944     1.039860781016
C     -1.643191560460    -1.392661626073     1.787342360035
O     -0.619748637899    -2.088634182328     1.404036216831
C     -2.069052771786    -1.527465084360     3.187227569334
H     -3.116263099979    -1.874374498150     3.190713521238
H     -1.412152320749    -2.253081232125     3.697523968099
H     -1.988318275844    -0.536856328355     3.668573385900
N      1.955975892405     0.147653557048    -1.557885782426
C      2.480637835250     0.117513068746    -2.819702374109
C      2.568795669406    -1.088749563976    -3.494185368275
C      2.131741177674    -2.261307960081    -2.904770114113
C      1.607112619161    -2.200607935541    -1.636745637643
C      1.545943308691    -0.945445080896    -1.000793063800
H      2.821391552010     1.034825733408    -3.286121474660
H      2.981034749890    -1.108389880641    -4.489973270243
H      2.200005251422    -3.208273889592    -3.433983190814
H      1.249980468229    -3.069529497149    -1.120506128694
O      1.019574793860    -0.846272490740     0.218971048579
H      0.226109176200    -1.563874456403     0.725762019665

