# STO-3G

title

0 1
C     -1.498096284059     0.910922106585    -0.711807194166
C     -2.180651931456     2.116382935181    -0.997795663922
C     -3.330087257792     2.100835016641    -1.816882263649
C     -3.796733720434     0.890352611303    -2.365176019674
C     -3.108926249335    -0.307410257727    -2.091855925822
C     -1.961457924345    -0.302018725076    -1.269635320029
H     -1.976080268363    -0.100616445285     1.384134281294
H     -1.834775986356     3.067040275074    -0.596615793872
H     -3.852545080704     3.031995404024    -2.027705371498
H     -4.678357960324     0.882282278764    -3.001925496179
H     -3.453970637721    -1.245850896528    -2.521375790395
H     -1.421431703762    -1.224889825184    -1.074593296961
C      2.062042787346     0.554579890642     2.004328561940
H      2.791962640161     0.071711678161     1.361074172399
H      1.585179911106    -0.073836388198     2.746833921699
C      1.823439496256     1.906354563634     1.994452335411
H      1.119893582270     2.326879711817     2.699025292760
C      2.584999659886     2.880507227891     1.197875340028
O      2.116862906376     4.042632114521     1.067069611762
O      3.742269941735     2.473656072679     0.511680347731
C      4.429072063159     3.492254073715    -0.227815126439
H      5.315176845282     3.045607633912    -0.728255634180
H      3.771989849285     3.925318018407    -1.014307468413
H      4.781482519656     4.302657663226     0.449332657806
Pd     0.110882978737     0.900726223058     0.510414175422
C      0.380520693136    -2.067702565642     1.676508294241
O      0.363981984004    -1.655605233307     0.409694511976
O      1.192617685898    -2.855746847958     2.203194553053
C     -0.767411451486    -1.447708678502     2.539707402112
H     -0.368277247231    -1.329352156987     3.551121326520
C     -1.976555210444    -2.358519603632     2.601424695607
H     -2.747170191511    -1.913764686522     3.264633410467
H     -2.402412912024    -2.481587997217     1.584083296356
H     -1.686303714994    -3.352399376003     3.001969296468
N     -1.232375670603    -0.096858265757     2.084544080752
C     -1.269175497981     0.932568294556     3.034632066819
O     -0.563220424675     0.958409598907     4.056843857557
C     -2.183555950063     2.052782686749     2.739022025878
H     -2.150959927064     2.766927504529     3.582081015381
H     -1.853327490188     2.543050256804     1.813091772890
H     -3.204821976604     1.647176881970     2.625328360987
N      1.252641736721     1.309574319142    -1.140296176788
C      1.196111946194     2.490346684002    -1.829671730187
C      1.999244598632     2.685223556739    -2.932649112120
C      2.862502758315     1.698793204996    -3.353538979805
C      2.892866344753     0.518081706184    -2.661364110334
C      2.043890910619     0.329626927666    -1.546537838348
H      0.539287937445     3.282802990137    -1.492359561236
H      1.949988489247     3.620584207915    -3.465230049140
H      3.499660745982     1.850402370743    -4.220656595634
H      3.530164052667    -0.293509778198    -2.950419626314
O      2.115630714484    -0.842748107243    -1.000505675519
H      1.290680879176    -1.338893714076    -0.258605473869

