# STO-3G

title

0 1
C     -0.280532678135     4.011785865593     0.145056164431
C      0.042820231285     4.375714029668     1.469506175162
C      0.137379135620     5.729960110184     1.838714849618
C     -0.097140207168     6.740316748124     0.886170423619
C     -0.429711330097     6.385008824872    -0.435350821117
C     -0.522765430700     5.029735812690    -0.802788250090
H     -3.952515897635    -0.876617006191     0.716835627621
H      0.225242615493     3.599823111408     2.213713050029
H      0.389112317774     5.993335470484     2.863438762029
H     -0.027838800317     7.787471932471     1.170729021509
H     -0.620743274952     7.158983682062    -1.175122658492
H     -0.787797923321     4.763020097628    -1.823925501379
C     -0.348637649658     2.560721757097    -0.295994641205
H     -0.896097500380     2.003505982224     0.575159605008
H     -1.036605104086     2.405323462891    -1.130057493770
C      0.953019516738     1.822279484629    -0.592255849656
H      1.013591534861     1.398215139154    -1.585610953276
C      2.248558232506     2.259868457129    -0.049723399906
O      2.377793111855     2.226482938661     1.203406725298
O      3.372306600807     2.183144455677    -0.887870203650
C      4.636793326384     2.449716827633    -0.265641773744
H      5.442107425386     2.386534131811    -1.029100377119
H      4.654089008082     3.472815233355     0.174312199216
H      4.854000002555     1.699078654954     0.527855488947
Pd     0.217170120040     0.443253017100     0.715504453060
C     -2.349523646225    -0.121166343666    -1.359465400176
O     -1.277394630331     0.137397435203    -2.110552054998
O     -3.389211410313     0.574230767615    -1.350020371429
C     -2.240031973630    -1.360795788601    -0.406077522517
H     -1.195438258669    -1.568371552360    -0.167466412790
C     -2.848830726151    -2.602466988678    -1.017618437260
H     -2.761022954946    -3.448713796498    -0.305065393844
H     -3.924194978814    -2.424092066212    -1.228488838757
H     -2.323253887282    -2.862661041190    -1.959875971891
N     -2.962915743037    -1.067673770103     0.832880384932
C     -2.360924389174    -0.738934795414     1.988879291797
O     -1.111328989358    -0.616372363930     2.168678266079
C     -3.257611634833    -0.508239166044     3.136132363025
H     -3.844991017571    -1.428885508869     3.295165669634
H     -2.651219987729    -0.277773851767     4.029407925324
H     -3.924677495364     0.337311441599     2.891185897842
N      1.573406459907    -1.006022148973     0.239983057776
C      2.524208911994    -1.358495506485     1.157141960607
C      3.463422058597    -2.315128841079     0.839014621794
C      3.452750382918    -2.926320912786    -0.394908713099
C      2.489013453725    -2.561356088204    -1.297797099220
C      1.535731169347    -1.573586678934    -0.955743415273
H      2.538886678407    -0.881213041273     2.130391620615
H      4.210386926415    -2.586246875087     1.567077413595
H      4.192345966490    -3.681751051447    -0.646983120976
H      2.432935335599    -3.000010708075    -2.274057631623
O      0.673739854534    -1.300197271772    -1.872704404576
H     -0.400062014056    -0.498489224513    -1.966613479289

