# STO-3G

title

0 1
C      1.163081526370     3.722999668287     0.489436444446
C      2.522746386084     3.648202800067     0.944157829881
C      3.595894275272     4.054507417175     0.093071331869
C      3.304786677003     4.628049572065    -1.181297159062
C      1.974120659193     4.808247646043    -1.568979071890
C      0.914363421156     4.350720667626    -0.740352694763
H     -3.310490574752    -2.344648667966    -0.469413735595
H      2.724904619392     3.435022883395     1.993625784579
H      4.609361331726     4.097332025856     0.485515495680
H      4.118983906116     4.948096640405    -1.826012382537
H      1.744827622362     5.279157781839    -2.521647272099
H     -0.110698927275     4.469175621728    -1.085555679860
C      0.055166509905     3.039400773818     1.265026889502
H      0.119079708400     3.281385832476     2.335362673825
H     -0.919087233330     3.403941592027     0.923941762359
C      0.033791413011     1.451364234298     1.136711362528
H     -0.997199492975     1.157961894139     1.333496378244
C      0.865987503673     0.723764923055     2.136113013203
O      0.293573909301     0.053219652380     3.039998821834
O      2.247509962188     1.022163123720     2.240651518881
C      2.958952555255     0.282003483242     3.243866018859
H      4.030197928570     0.573091961676     3.240850772875
H      2.545694279764     0.492215629764     4.257254132966
H      2.891723916347    -0.812692195453     3.044047934925
Pd     3.244332283592     1.689519658559     0.081289794765
C     -0.579513194402    -2.011170390817     0.126654454902
O      0.545656728671    -1.901700118050     0.861532421878
O     -0.640253211388    -2.037601944586    -1.118591879110
C     -1.848088938485    -2.049873693947     1.020057886021
H     -1.713900636282    -1.321904308067     1.823532813273
C     -2.092384586856    -3.413620960213     1.629059938311
H     -3.000481662560    -3.374200702328     2.265125591712
H     -2.250895994811    -4.156087153583     0.821050916770
H     -1.223923833382    -3.714073895251     2.250593129877
N     -3.022871414549    -1.679178492463     0.236436674658
C     -3.441219346583    -0.392142875961     0.148772061488
O     -2.900168038075     0.581888061888     0.732745499458
C     -4.618006396243    -0.127279850498    -0.708561356334
H     -5.372900078451     0.377523454298    -0.083838468773
H     -4.284509104543     0.532688010008    -1.524941321339
H     -5.028410911542    -1.068160793386    -1.114827006687
N      0.276615995695     1.077629938837    -0.337506006689
C     -0.624377182843     1.541169075734    -1.290602716264
C     -0.256407287199     1.667650429509    -2.614949788392
C      0.979867916191     1.268826499673    -3.049761133370
C      1.850679449733     0.715005201413    -2.153302549990
C      1.483410416433     0.582409945446    -0.795543805389
H     -1.603366086345     1.893408972349    -0.990051898573
H     -0.970238198757     2.062714495877    -3.316961869818
H      1.236044154492     1.330201831961    -4.103939506517
H      2.739343187639     0.222780243159    -2.492288748394
O      2.197997038125    -0.297370110941    -0.124155718835
H      1.347893208573    -1.433410871324     0.409080548105

