# STO-3G

title

0 1
C      1.928801242678     2.275113055169    -1.738349946356
C      1.144900169522     1.881544149847    -2.861065537046
C      0.218651090492     2.788224022062    -3.436277351308
C      0.080367071449     4.072776045390    -2.902362929721
C      0.869065746844     4.477699534177    -1.793803569752
C      1.781102714380     3.590708914533    -1.215702151945
H      2.738783062246     1.669306873949    -1.338280144084
H      1.336346098092     0.935631726039    -3.360880146426
H     -0.377729183882     2.476420556955    -4.289569696137
H     -0.637992008722     4.764847313117    -3.333700075532
H      0.752452428316     5.479939421558    -1.389693814796
H      2.394208262535     3.877115304758    -0.366792576873
C      1.761624832039    -0.889265763622    -1.109617018744
H      2.258594790240    -0.559821677002    -2.015239309412
H      2.379986435326    -0.994646983048    -0.230566868787
C      0.467979273772    -1.386219462773    -1.094732010545
H      0.106190324481    -1.823211695746    -0.179945517997
C     -0.406594340345    -1.558452826309    -2.266888756031
O     -0.018160831314    -1.174445656982    -3.401131471928
O     -1.688406574420    -2.099792567007    -2.074958776896
C     -2.530727373165    -2.141056457800    -3.235772275211
H     -3.513441482374    -2.582809513703    -2.963234382248
H     -2.710917921616    -1.114684820033    -3.630240796925
H     -2.075879331785    -2.769990526900    -4.034566510230
Pd     0.316441546141     0.918913933151    -0.551099651986
C     -2.132319516341     2.162393428815     0.258322361291
O     -1.089384634505     2.356329046520    -0.582115744442
O     -3.257028939001     2.664914189828     0.079599148460
C     -1.756832880448     1.340594041965     1.516914024606
H     -2.660032809515     0.833884322280     1.883294735025
C     -1.235889350977     2.290542412583     2.584805569554
H     -2.019735180200     3.030938796948     2.850535270098
H     -0.939091043285     1.745265835377     3.498024593670
H     -0.343881506277     2.832491583982     2.201531492144
N     -0.666837817268     0.395166077061     1.171235734702
C     -0.204332298053    -0.575852249968     1.959140179733
O      0.977495763310    -1.076372396659     1.866267724512
C     -1.121521116537    -1.203721745924     2.939705786238
H     -0.603840915529    -2.058439286199     3.412350046202
H     -1.398767114188    -0.473863937172     3.713484222913
H     -2.012040203820    -1.567869031487     2.396973323513
N      4.456491778630     1.387110774661     0.164220725784
C      5.795033649487     1.218794938722    -0.064516142437
C      6.499528820617     0.251003945343     0.629481338828
C      5.866941139974    -0.540073174496     1.565019785903
C      4.528136186867    -0.341392812306     1.787672839603
C      3.858634230553     0.669126658132     1.048712872105
H      6.295985336913     1.834423022566    -0.802472894234
H      7.551778133291     0.122761564161     0.436010907282
H      6.417837727799    -1.297191296265     2.116799933757
H      3.989633073761    -0.910246406483     2.518792407484
O      2.550338190006     0.851423627533     1.312727608904
H      2.006613502897     0.032625691794     1.609896469394

