# STO-3G

title

0 1
C     -3.420913572854    -1.080210920855    -0.824492952248
C     -2.684727688266    -1.457621601179    -1.987416744174
C     -2.278504613047    -2.790348908272    -2.149302930635
C     -2.612207419148    -3.753534772067    -1.176265498200
C     -3.375367798944    -3.402404585911    -0.041548809503
C     -3.793433283487    -2.075978339159     0.130197411429
H     -3.903054774383    -0.107075148266    -0.819984818548
H     -2.462409432800    -0.685246911793    -2.717301107588
H     -1.691603182837    -3.075126702116    -3.017703063366
H     -2.277037229594    -4.780632592054    -1.298645555339
H     -3.634164200086    -4.157653783256     0.695189601114
H     -4.424773419170    -1.809830895502     0.974199422988
C     -2.517800467974     1.887565559847     0.353740694168
H     -3.335031455164     1.850591054863    -0.358522265608
H     -1.664120581918     2.492147111952     0.075054547168
C     -2.602274197153     1.388859777156     1.648930967122
H     -1.784951099411     1.582189141682     2.325952550058
C     -3.809398708280     0.822363368625     2.271314206927
O     -4.866220513022     0.704418509560     1.598183736358
O     -3.710719374097     0.310396499652     3.575566983294
C     -4.904705925627    -0.279429321168     4.110066777842
H     -4.708317270817    -0.639504771191     5.143245842722
H     -5.730562545555     0.466861694739     4.154167882850
H     -5.227347796570    -1.150672019990     3.495715023026
Pd    -1.532290921840    -0.210046412110     0.333353468969
C      0.417322031132    -2.119175976223     1.201746277706
O     -0.536219035658    -1.972110371148     0.253156708929
O      1.033313588096    -3.181979209070     1.402848006393
C      0.669782521448    -0.825010375708     2.046845815521
H      1.740244659927    -0.799566351692     2.286775460449
C     -0.113302945531    -0.842078606665     3.341054532762
H      0.060897518372     0.102000029719     3.896746992045
H     -1.197020584486    -0.940866684932     3.127498901690
H      0.210298622981    -1.698616400156     3.969014662572
N      0.200540324995     0.323749371365     1.251199620341
C      0.909910657527     1.360540702360     0.811630730782
O      0.525747247726     2.169424752566    -0.110030407776
C      2.209303106609     1.658389843081     1.454402325927
H      2.586179433133     2.621791820321     1.064825140350
H      2.050170426708     1.734376199642     2.543272384557
H      2.926404307977     0.859627906397     1.197634486290
N     -2.745755547019     1.577275619702    -3.246131749390
C     -3.552313880934     2.391214652221    -3.993152493435
C     -3.226546387369     3.725706607026    -4.158587793899
C     -2.082667316986     4.243128884818    -3.588697402541
C     -1.282928025327     3.404241296136    -2.855401588893
C     -1.666105583096     2.043297443683    -2.721393778735
H     -4.454203046601     1.990136793544    -4.440624236577
H     -3.872478426911     4.358447591302    -4.744475042584
H     -1.818534097062     5.288646639341    -3.723460281089
H     -0.369655161211     3.745854937144    -2.410686424749
O     -0.848150316984     1.244390566379    -2.013939630313
H     -0.235944082694     1.677706755145    -1.308251341606

