# STO-3G

title

0 1
C      0.862248283159    -2.366332102629     0.812805210450
C      0.737579184712    -2.845023071802    -0.520817053059
C      0.119393966478    -4.083842004385    -0.784159997516
C     -0.351059740664    -4.866162119568     0.285955157526
C     -0.224181075532    -4.409070796945     1.619935092764
C      0.371878830898    -3.168269324064     1.880150241139
H      1.600286365158    -1.566671322323     1.019959437307
H      1.170869813479    -2.264592251635    -1.329932162707
H      0.027714330762    -4.442812384605    -1.805842885622
H     -0.814576494172    -5.831286027089     0.094279363698
H     -0.593805908689    -5.023256013997     2.437512191669
H      0.487377402453    -2.826976557665     2.906085599052
C     -1.995843158122    -0.662252666657     1.986935783458
H     -1.732690914527    -1.428535978227     2.707607277989
H     -2.025796537308     0.355247266729     2.359424234946
C     -2.493272493335    -0.970191025582     0.725459195566
H     -2.821299793799    -0.162132652635     0.088024493543
C     -2.852074906531    -2.320754468802     0.261343329796
O     -3.029243089127    -3.244523921515     1.098968571416
O     -3.181089847639    -2.489579770145    -1.094917182910
C     -3.651525854228    -3.792619416042    -1.467394715790
H     -3.875390961465    -3.807080479280    -2.555692536492
H     -2.880218224834    -4.567450666296    -1.259443182235
H     -4.586189869421    -4.047194608698    -0.917555976018
Pd    -0.256747807200    -0.322188016008     0.506733808598
C     -0.585552018027     2.046942805858    -1.148872961807
O     -1.128883599205     1.460902837603    -0.036457140119
O     -1.027280904120     3.094722679278    -1.640432756402
C      0.625920906507     1.255641426383    -1.723966732875
H      1.302229453971     2.006076487406    -2.153906315158
C      0.194554847862     0.314583984555    -2.828535344187
H      1.081359315749    -0.216525162543    -3.231663807172
H     -0.519831126273    -0.434817725599    -2.428906443545
H     -0.291437738302     0.883208739322    -3.649247907609
N      1.224130949346     0.438783534851    -0.654502357844
C      2.502347754597     0.412846355591    -0.238072007301
O      2.913595208260    -0.264813550668     0.756106527066
C      3.509662742399     1.190900139788    -0.998167412645
H      3.492945473202     0.855836614900    -2.048508594640
H      3.270411638450     2.262215948458    -0.896044286544
H      4.507750291374     0.997439371489    -0.562787611115
N      0.645683080163     0.852664823984     2.677991088843
C      1.681088519500     0.377384871100     3.440504955846
C      2.052733933329     1.043757894771     4.594156518148
C      1.400077042666     2.195043533619     4.979390364860
C      0.378913571977     2.656163315104     4.190745574568
C      0.042488854074     1.943029643783     3.020018822837
H      2.184784588524    -0.540435090135     3.165254367105
H      2.862255543036     0.655623257182     5.189841779614
H      1.689245903259     2.723873091947     5.883584617415
H     -0.167307661382     3.548311447196     4.422940843198
O     -0.957948138309     2.496966254887     2.323811504390
H     -1.084789220355     2.145738849856     1.381156456382

