# STO-3G

title

0 1
C     -1.219252585199     2.373484457418     1.658261130451
C     -2.311012774682     1.532130396716     1.302525479691
C     -2.697098256021     0.495779728614     2.154307696592
C     -2.003227908026     0.272585582597     3.371362690154
C     -0.931697629976     1.093911047479     3.740243554769
C     -0.533824788048     2.157031481582     2.891692183618
H     -1.036625435183     3.242877156683     1.036350775341
H     -2.799242217581     1.729834830575     0.352990975757
H     -3.522339805792    -0.156076958950     1.881042974918
H     -2.303076414841    -0.547293623181     4.019221518457
H     -0.403019990924     0.927076344249     4.675021088527
H      0.226623516252     2.851551207810     3.241416540637
C      1.394589944958     3.674652811790     0.731111057622
H      1.011383379627     4.068187760762     1.666928955902
H      0.858769788909     3.947734213449    -0.171112734798
C      2.597745723148     2.996548444490     0.661123613488
H      2.998705264103     2.762187106942    -0.310866832887
C      3.461065742338     2.691921677689     1.811322584128
O      2.968839754886     2.714732603965     2.971073603518
O      4.748494107194     2.180274378764     1.575788025575
C      5.519685907580     1.860814990636     2.742873135461
H      6.516170342338     1.478406988091     2.432851060680
H      5.676392417093     2.765171438840     3.373866198812
H      5.018297590887     1.071176639699     3.347343184466
Pd     0.812201758034     1.379233689757     0.825953280718
C      0.860161557499    -1.487153294231     0.809516473896
O      0.019117651959    -0.455087660847     1.054088324992
O      0.560260087163    -2.678533705626     1.008163825843
C      2.252705755066    -1.040776697670     0.262203702885
H      2.588138078141    -1.816054656909    -0.438221581521
C      3.273290337403    -0.920653065863     1.371541056196
H      4.236636268742    -0.559694374124     0.955737534074
H      2.915695094254    -0.199474566221     2.134458724894
H      3.430596959904    -1.908687727852     1.852649321094
N      2.088890336159     0.293265126707    -0.342465026886
C      2.355708775999     0.666338198174    -1.589091379616
O      2.009169157755     1.798230256341    -2.093868812109
C      3.159725161653    -0.227608319751    -2.451326268316
H      4.103403032921    -0.459929162086    -1.928295271347
H      2.570388102628    -1.135536542394    -2.662041513591
H      3.382317572453     0.292413729033    -3.401629020830
N     -2.485358168134     2.635076046170    -1.804621642610
C     -3.577149540485     2.348609196471    -2.578331854376
C     -3.410311421970     1.912782303426    -3.880799055381
C     -2.147170283649     1.768803649204    -4.413167599923
C     -1.068370301687     2.069587352738    -3.621809825743
C     -1.302098384698     2.512303701740    -2.291852292554
H     -4.572422771696     2.456988150161    -2.163513265112
H     -4.277984291965     1.686296754207    -4.477742734971
H     -2.010887931569     1.431773776316    -5.437228896238
H     -0.065861049178     1.997988516616    -3.991544798666
O     -0.217885944181     2.820209097411    -1.552916915639
H      0.695006908720     2.430949952526    -1.837450391375

