# STO-3G

title

0 1
C     -0.536624652235    -1.883689552149     2.114319336178
C      0.825339506709    -1.688149182521     2.484228149865
C      1.176965497527    -0.669354523412     3.374552732552
C      0.177733652616     0.166584913873     3.923331128892
C     -1.172681632431    -0.023777749563     3.589702765544
C     -1.536863886563    -1.050504376728     2.694197189560
H     -0.788650258259    -2.771955894323     1.539846591707
H      1.589479012726    -2.324390650059     2.048776466852
H      2.220502003911    -0.505773866382     3.627066467180
H      0.460134785697     0.968633915516     4.600288106790
H     -1.937464368786     0.620068670298     4.015019578046
H     -2.589251180835    -1.225889731768     2.489931939040
C     -1.641317362209    -2.412131110188    -1.116928000661
H     -1.445318182509    -2.208212786295    -2.162291928056
H     -1.063769804468    -3.237760819924    -0.690893176715
C     -2.650492858365    -1.754160299358    -0.431359824460
H     -2.905052273641    -2.067337132946     0.569864962736
C     -3.604931566663    -0.810230720015    -1.041022771010
O     -3.530453232164    -0.529371663673    -2.266347220807
O     -4.535873674817    -0.175877755832    -0.201308605116
C     -5.446049397991     0.728351469778    -0.844262020761
H     -6.132613481101     1.163006917340    -0.085739058050
H     -4.897463209485     1.564088124985    -1.335036071013
H     -6.061862329167     0.195961650033    -1.604652265530
Pd    -0.671656394720    -0.617805361781     0.098821604256
C      0.376560277732     2.042228510146     0.037726924528
O      0.410444322711     0.929422087586     0.814554840374
O      0.843949878474     3.139197994548     0.390932132134
C     -0.326758256729     1.820781179009    -1.345708807245
H      0.219558010791     2.414872148143    -2.088874188043
C     -1.765239399218     2.284095313518    -1.320423483899
H     -2.247366877948     2.051852489433    -2.292978169093
H     -2.313923475340     1.761467477982    -0.512296583526
H     -1.809417885942     3.378748417537    -1.141758098597
N     -0.318724361660     0.372726867011    -1.611945414611
C      0.305290001911    -0.278546703874    -2.596494569458
O      0.604638256860    -1.522042649682    -2.561462784079
C      0.614000574397     0.455270331379    -3.843348861708
H     -0.312503015069     0.941413271593    -4.195124038059
H      1.412619606598     1.185243755240    -3.635117813747
H      0.967760630317    -0.265698548459    -4.603570970290
N      0.402209929926    -4.458579849978    -0.016139766983
C      0.248059374806    -5.647176652435     0.645943864684
C      1.337701363453    -6.260818060301     1.233920050093
C      2.589938513620    -5.690712910832     1.151299791107
C      2.721160752126    -4.509875461158     0.469606244874
C      1.577948189815    -3.924339420066    -0.121251368709
H     -0.735222296345    -6.096380567139     0.721462387025
H      1.202985118127    -7.191384699115     1.760033676561
H      3.451235806782    -6.167126850175     1.611926953354
H      3.665371483454    -4.014889013204     0.358697363963
O      1.848088283640    -2.782117614387    -0.749307753924
H      1.196911664529    -2.346747571107    -1.411779509326

