# STO-3G

title

0 1
C     -2.901074173050    -0.775152849299    -1.664149690703
C     -1.965161809509    -1.431527384236    -2.509126670259
C     -1.783873671208    -2.813221721910    -2.414951958536
C     -2.531218503568    -3.570719528158    -1.477865466727
C     -3.461259902317    -2.943370797254    -0.642913247430
C     -3.657229464682    -1.541090712841    -0.729550905050
H     -3.112733420907     0.276138336183    -1.833362534343
H     -1.383153453957    -0.840962403533    -3.210339684495
H     -1.054633484644    -3.309326131023    -3.048897743446
H     -2.371147885838    -4.642801302048    -1.403596703391
H     -4.040297995275    -3.520482666442     0.072842075574
H     -4.463614149101    -1.086137111189    -0.160385453667
C     -3.317205291193     1.535339027974     0.376777273422
H     -4.219559744759     1.062292466494    -0.002791716984
H     -2.852533690782     2.263466172153    -0.286228558648
C     -2.938928039011     1.401459458239     1.702454709936
H     -2.129266846269     2.011998308978     2.062750560688
C     -3.653178263618     0.611132167317     2.716769092473
O     -4.495545451451    -0.248654496948     2.345090631967
O     -3.220471759299     0.677389760106     4.051933279213
C     -3.906516106824    -0.177762501823     4.977536831348
H     -3.485873778630    -0.031251690374     5.995905699851
H     -4.992673424479     0.066487817255     5.012442348988
H     -3.777204855477    -1.248715578324     4.700149070206
Pd    -1.764177414483    -0.222341999390     0.410652092886
C      0.406521465670    -1.946805120768     1.174081558930
O     -0.535520403821    -1.805827684808     0.211916263327
O      1.165853403270    -2.929513729746     1.250579101921
C      0.439099813926    -0.764933281128     2.194844345060
H      1.490531502407    -0.591779152351     2.457099571546
C     -0.326284122946    -1.098088479802     3.456311036293
H     -0.317510740937    -0.225675358183     4.141852337328
H     -1.377469720526    -1.342532359028     3.202786565154
H      0.137983569045    -1.968512589004     3.965389975515
N     -0.215754027019     0.392499642267     1.565331463950
C      0.258099358995     1.622906896298     1.381305710996
O     -0.315003874457     2.499230440760     0.641057331580
C      1.468907075277     2.040986835295     2.121183155949
H      1.640325083284     3.117224560886     1.935953030956
H      1.294497122355     1.870764184128     3.196882180818
H      2.332179509218     1.464509715451     1.746735291692
N     -2.515803680334     3.017497996774    -2.262934835337
C     -3.406645961905     3.491542013194    -3.187921715411
C     -3.203654290190     3.246153076257    -4.533925768998
C     -2.099138450910     2.536323049169    -4.957565772595
C     -1.214418777952     2.087042339929    -4.012174426563
C     -1.468339286041     2.367781835971    -2.651231572284
H     -4.278724705777     4.045249958879    -2.860345335707
H     -3.914977958723     3.616431960132    -5.253566711847
H     -1.932763597243     2.341888429584    -6.013748462853
H     -0.329506211628     1.539295247367    -4.267340478795
O     -0.542757608054     1.880365721144    -1.820598417577
H     -0.576994358890     2.184694198404    -0.843556854353

