# STO-3G

title

0 1
C     -0.223791547852    -1.422561238678     1.519617973979
C      1.186278569123    -1.426580269012     1.739403208652
C      1.759981878091    -0.534155282503     2.661493003745
C      0.935150556738     0.353003870027     3.384735718357
C     -0.462413757867     0.345770663299     3.197404626551
C     -1.043061737966    -0.544642763664     2.279623587181
H     -0.746246660316    -2.203245185178     0.967789011831
H      1.828365884651    -2.133421013694     1.220131033497
H      2.835059280720    -0.536202295271     2.821924601853
H      1.381734480021     1.040062733434     4.100437561860
H     -1.093063406833     1.025150770973     3.764476100239
H     -2.114152786971    -0.591268546348     2.127974273870
C     -0.468626776431    -2.356268623693    -1.918388752670
H     -0.617939167273    -1.897036418251    -2.890125467787
H     -1.360973577396    -2.696669517568    -1.404221784699
C      0.791026968907    -2.620887492579    -1.403801396480
H      0.879776470291    -3.155176795985    -0.469258954793
C      2.053905637526    -2.393756697745    -2.125360019856
O      3.127391191942    -2.420617270613    -1.467297120829
O      2.047294421185    -2.209273540319    -3.517327964590
C      3.270445021513    -1.726751232279    -4.088699766602
H      3.139450894836    -1.607055768495    -5.185570300091
H      3.532580837528    -0.729134091217    -3.667106048051
H      4.104608928678    -2.442391574600    -3.911257399094
Pd     0.075215387512    -0.498388744352    -0.695867195304
C      1.301813062579     1.546286565963    -2.258202810679
O      0.786613173036     0.291548957683    -2.400720922830
O      1.960829239291     2.101594241219    -3.151927286354
C      0.997014600095     2.203479728228    -0.868496136803
H      0.781624950543     3.263778380547    -1.054223297983
C      2.180535116848     2.106152454923     0.066802544200
H      1.922232314915     2.569517973724     1.041392298430
H      2.435592629766     1.040699577150     0.239723364579
H      3.057716582441     2.629423021117    -0.367843150108
N     -0.110585739071     1.458960990781    -0.258600936545
C     -1.326417941975     1.886842842734     0.072971933393
O     -2.320415403683     1.108339533668     0.278870423841
C     -1.538970511810     3.335275134101     0.282089152414
H     -0.788420694982     3.691593147783     1.008106958579
H     -1.449196450663     3.847276894540    -0.689574448455
H     -2.555887707811     3.491515223073     0.687319454427
N     -3.112356426359    -2.441155330047     0.572022273237
C     -3.549936259559    -3.650970729945     1.040789648619
C     -4.406026511149    -4.422059752894     0.276064306803
C     -4.838965106806    -3.976524010610    -0.955273713346
C     -4.400605453518    -2.754527217405    -1.394023105245
C     -3.536682658668    -2.000241302596    -0.568778727288
H     -3.205957711972    -4.010265029586     2.003697360137
H     -4.737485088854    -5.376328830555     0.651143945336
H     -5.512981456649    -4.577185631287    -1.560288074180
H     -4.704653755290    -2.339452594731    -2.334295501425
O     -3.176851796759    -0.830999431181    -1.099856423139
H     -2.758951455219    -0.122902084241    -0.478965784796

