# STO-3G

title

0 1
C     -0.127772814674    -0.885933519135     1.281146613987
C      0.442220347515    -2.186561379308     1.247914842949
C      1.747271575002    -2.409733139604     1.709692087632
C      2.506461910211    -1.333619047435     2.221812533407
C      1.950519882957    -0.042167828175     2.288534588718
C      0.634807720490     0.178082266965     1.837931537096
H     -1.207901548726    -0.789480819689     1.128333354535
H     -0.157904543898    -3.011118556259     0.875806034491
H      2.170035320393    -3.411118451458     1.676461931737
H      3.518682891458    -1.507857465246     2.579714555331
H      2.526787633891     0.779898430462     2.704710442200
H      0.184578718310     1.159740312001     1.932044856754
C     -0.615209918300    -1.829046707433    -2.107173360266
H     -0.963196197802    -2.602335598531    -1.428957525056
H     -1.387602364793    -1.344603198315    -2.698233290015
C      0.728749812172    -1.566883581802    -2.324619378087
H      0.998400572540    -0.817988446208    -3.053212682856
C      1.845734824292    -2.361135061692    -1.785942543983
O      1.623037750926    -3.479623542799    -1.249166458696
O      3.154352882565    -1.877731597753    -1.953632632717
C      4.198488537653    -2.691247784173    -1.401083518388
H      5.181369403459    -2.210507003216    -1.595494935573
H      4.075072314372    -2.797989670041    -0.299698075063
H      4.206219015590    -3.700102509036    -1.873070585318
Pd    -0.263412473581     0.100700372985    -0.924879858721
C     -0.030143520239     2.452742113461    -2.552494748636
O     -0.171386252965     1.101304769331    -2.669242310299
O      0.166191589927     3.190180424798    -3.530996960765
C     -0.123484595337     2.973015274903    -1.079843938405
H     -0.637841244479     3.942163070014    -1.112468024199
C      1.246641303972     3.170816129698    -0.470530612284
H      1.140648182447     3.551917474800     0.565974972805
H      1.789078583830     2.203098163099    -0.440234420639
H      1.830168419211     3.901246125626    -1.069490536860
N     -0.813225379838     1.948836071998    -0.290504322435
C     -1.964331340840     2.029018334325     0.373479736813
O     -2.618155130234     1.001498327299     0.770453976011
C     -2.497447292967     3.362978182320     0.723817228188
H     -1.713241914440     3.920988430535     1.262973202538
H     -2.801700451928     3.873632403416    -0.204633155160
H     -3.380777965258     3.233088287307     1.376735560176
N     -2.877758378144    -2.547958270725     0.532437299036
C     -3.030049188181    -3.868896789892     0.858427448292
C     -3.769064011215    -4.703663059669     0.039329498228
C     -4.368986318616    -4.213215523417    -1.101996552851
C     -4.217975584535    -2.882478586042    -1.394236606038
C     -3.461019585552    -2.074324903334    -0.517291833798
H     -2.551425603003    -4.261679236402     1.747932912493
H     -3.872180787323    -5.744311998333     0.298750752736
H     -4.950232442022    -4.863962977359    -1.749773302498
H     -4.666240404112    -2.428790959916    -2.255101741404
O     -3.383879639624    -0.792693974842    -0.895490374163
H     -3.037094377126    -0.143496403946    -0.185811084961

