# STO-3G

title

0 1
C      2.205072330881     0.752243046209     3.127392500929
C      2.544316241197     1.647921260861     2.084658378964
C      2.892629560657     2.982150788145     2.377235701421
C      2.920293126664     3.432003598379     3.710703500333
C      2.593253216768     2.540341553299     4.749231353722
C      2.235289518045     1.206001387044     4.463077192280
H      0.089199904438     0.664280176312     1.885693461229
H      2.541770015510     1.311610498597     1.050102353671
H      3.142862652096     3.661388382159     1.565082585999
H      3.194660041343     4.459220323134     3.938005467804
H      2.615471575613     2.875812915703     5.784076706499
H      1.995827952439     0.547318708575     5.293477387941
C      0.833686454945    -1.843184865753     4.354461631641
H      0.890310374652    -2.921477740396     4.215941385322
H      1.474188064744    -1.428154831754     5.122244471319
C     -0.203771543143    -1.099806192828     3.776967260676
H     -0.343810322680    -0.069400050821     4.067417623173
C     -1.362541868233    -1.707797905375     3.093044289273
O     -1.336028038030    -2.940280546119     2.837539641528
O     -2.569087314692    -0.986849361886     3.064905396500
C     -3.687492856447    -1.661514187639     2.472120899542
H     -4.574407475834    -0.993517800672     2.494677863748
H     -3.476706204457    -1.920037890084     1.410718766614
H     -3.934084749074    -2.590591053117     3.033984290478
Pd     1.783381329408    -1.112736881509     2.534562596922
C     -0.953854686711    -1.736018747055    -0.563253870434
O      0.368835255905    -1.672739068663    -0.236042559644
O     -1.691800449770    -2.700146539560    -0.293962066205
C     -1.452179346648    -0.515620833918    -1.374873169105
H     -2.538819544637    -0.495480064647    -1.207059820588
C     -1.220170583051    -0.726420822330    -2.854970798854
H     -1.706736982479     0.091042268269    -3.427049415687
H     -0.130066624702    -0.699270615549    -3.058240172866
H     -1.642095119418    -1.698965805074    -3.183716898684
N     -0.908777139391     0.804597630460    -1.072660245889
C     -0.567899633578     1.232864398970     0.070421951605
O     -0.660568674320     0.525242854101     1.265331464122
C     -0.119476881581     2.632509660217     0.140402798731
H      0.793747483792     2.722631848312    -0.470393215608
H     -0.923559121657     3.254955852853    -0.287689843879
H      0.066835361281     2.918721706918     1.190036146106
N      3.443696521335    -1.410865683521     1.303425036018
C      4.653725560391    -0.894683230806     0.938909676419
C      5.504195847396    -1.647860978678     0.150568010578
C      5.143657529773    -2.914621710086    -0.271936846901
C      3.926492585475    -3.417001750275     0.116009700434
C      3.089665750128    -2.622572152907     0.925112830304
H      4.941847908000     0.098615380854     1.262763708569
H      6.457089190038    -1.236971876818    -0.140200235897
H      5.812758087585    -3.502922747065    -0.894309384049
H      3.585963599613    -4.393100739053    -0.165212174497
O      1.931199108404    -3.083921707918     1.321619521090
H      0.727032235717    -2.442154931136     0.308738378157

