# STO-3G

title

0 1
C      0.964430499400     2.970241814846    -1.414523478181
C      1.948947402173     3.704248635504    -2.104701083554
C      1.561904798324     4.542055910947    -3.172899741760
C      0.207294216884     4.637705019815    -3.545092264159
C     -0.764038033349     3.894325376514    -2.846586750063
C     -0.394265145003     3.054311120034    -1.774076663878
H     -0.816686063707     0.345189244621     0.587816492814
H      2.999322599744     3.630079281368    -1.830679146981
H      2.318117696292     5.114308908407    -3.706670460781
H     -0.087832060738     5.284665114266    -4.368033552401
H     -1.812458847008     3.963903418526    -3.129946267314
H     -1.143686901999     2.476631040025    -1.238619051781
C      1.866746692750     3.308005076596     1.462642280157
H      2.624584959110     2.893106436738     2.124668689920
H      2.175695979291     4.121948263827     0.816726730293
C      0.510803420436     3.013393021656     1.631162191628
H     -0.233357796022     3.556272644472     1.069560459058
C     -0.023948445998     2.236440041618     2.763834438854
O     -1.215411999858     2.431723679394     3.120428913813
O      0.853760366422     1.456554712422     3.535918954796
C      0.269356652263     0.788856512301     4.663679062772
H      1.038789022687     0.157435303698     5.158274738602
H     -0.111899572654     1.526258921325     5.405250787614
H     -0.566404593369     0.124638786606     4.347061166117
Pd     1.523361258197     1.702085008307     0.010404815364
C     -0.620406408526    -1.676318377250     2.140737201090
O      0.043536633212    -0.698511678559     1.430509547775
O     -0.054478307676    -2.416402369541     2.955381908410
C     -2.135635792257    -1.763453171040     1.811030658413
H     -2.549677487340    -2.360041950632     2.630765080853
C     -2.362840291416    -2.530935871979     0.520241430755
H     -3.451302784818    -2.689861652522     0.370789917006
H     -1.968537946607    -1.941447303995    -0.332929987195
H     -1.856449095984    -3.517733982683     0.559272091493
N     -2.931243957095    -0.538708472812     1.729596868718
C     -2.702572534572     0.557539380024     1.112885308947
O     -1.595042728601     0.952672235952     0.389374033511
C     -3.771885730005     1.561492148593     1.113487784855
H     -4.632692356471     1.177762423269     1.690650999215
H     -3.371350464351     2.469901772631     1.592533874131
H     -4.060813877938     1.757937004790     0.068114257848
N      2.124579504459     0.202459198262    -1.277718161349
C      2.244309072623    -0.030920173068    -2.617243973686
C      2.867459806360    -1.186456362119    -3.050541734749
C      3.361297332384    -2.107124478482    -2.144647902697
C      3.223838957473    -1.850404397984    -0.802842608476
C      2.585055030721    -0.660649209309    -0.397639988397
H      1.855799071829     0.686856212528    -3.330900662638
H      2.961364840525    -1.370215618122    -4.108273964172
H      3.847037338529    -3.016773148102    -2.487739359461
H      3.579046256756    -2.521257702862    -0.046568802861
O      2.436628278807    -0.408568407551     0.877850381405
H      1.084511506565    -0.689123487791     1.422920139770

