# STO-3G

title

0 1
C     -0.108246790423     2.906049065560    -0.347149751962
C     -0.037872219613     4.282275259489    -0.042200400130
C     -0.794278258646     5.208799056931    -0.789790901926
C     -1.626915563223     4.775196748513    -1.839700339416
C     -1.686213762336     3.405379707953    -2.155229882727
C     -0.923032770521     2.472330277446    -1.420427582313
H     -1.957910212828     1.229077099226     0.333781933754
H      0.604388095168     4.649703295042     0.754500171425
H     -0.728873286887     6.267306000903    -0.545820880428
H     -2.211298083926     5.495192324212    -2.407214221663
H     -2.310787846177     3.059307933837    -2.976281126786
H     -0.925118414356     1.425601550059    -1.719165714230
C      0.105641495383     1.042398039643     2.549800369855
H      0.782086641376     0.254445118269     2.873407555745
H     -0.903025409092     0.718291683063     2.320813366188
C      0.436828114934     2.391348660911     2.596633579202
H     -0.326315845277     3.125311483186     2.388738637481
C      1.696017601584     2.926466701928     3.140994383109
O      1.863570267029     4.173509801389     3.141636203746
O      2.767147140968     2.048859512058     3.373277493422
C      3.992017286035     2.651501840569     3.813811048083
H      4.754073383848     1.858024331292     3.973896442278
H      4.384643740006     3.358790430698     3.048379802195
H      3.844550190425     3.190705190259     4.777009149663
Pd     1.004308712993     1.498107528053     0.529356590996
C     -0.737196093193    -2.005799238729     1.547107016615
O     -0.030946491156    -1.640919277795     0.445589523730
O     -0.266465435101    -2.013149519682     2.702302329180
C     -2.190429190937    -2.440112397372     1.235873138976
H     -2.751061205158    -2.225676184515     2.157765303751
C     -2.266849467668    -3.926889467519     0.973796965657
H     -3.329783184142    -4.229895890998     0.872395664669
H     -1.743291039133    -4.155272192505     0.022643372512
H     -1.804677597722    -4.496198932495     1.806900160904
N     -2.833170838970    -1.794435875878     0.090533742174
C     -2.842744024254    -0.540933063859    -0.098857139896
O     -2.273978757357     0.400304144399     0.757198713788
C     -3.573275383907    -0.052115745713    -1.278971719389
H     -3.066514634023    -0.452525316937    -2.172914216755
H     -4.599550216729    -0.452845660796    -1.216694511150
H     -3.594485172692     1.050889765599    -1.287309451791
N      1.997416118960     0.986647483224    -1.205021252574
C      2.265525626420     1.448624662418    -2.460864417051
C      3.156490821512     0.757374697947    -3.260648895029
C      3.776986656108    -0.390732485732    -2.802528417672
C      3.495023022770    -0.831285435445    -1.532863137766
C      2.583810726013    -0.099644508238    -0.744486575317
H      1.780099651868     2.346662745347    -2.825679186718
H      3.365876096508     1.120823339998    -4.253372013381
H      4.476325285440    -0.932247245724    -3.434053596242
H      3.943804794759    -1.708148542563    -1.112086425607
O      2.304239716675    -0.496812988443     0.469079081909
H      0.917860281856    -1.316421635855     0.607935977121

