# STO-3G

title

0 1
C      0.279097634475     2.829125405310     0.147857832884
C      1.151794009658     3.769301419317    -0.438199735051
C      0.670520141848     5.053458861369    -0.767732137709
C     -0.672574744857     5.395429459196    -0.515999743359
C     -1.533330314840     4.450882648683     0.074415441446
C     -1.062206656321     3.164481271093     0.414791963037
H     -2.232952443293    -0.825757777464     2.009851401844
H      2.192851889184     3.517450562783    -0.630169772220
H      1.345987901833     5.780056707910    -1.214972954361
H     -1.041948324245     6.385743532579    -0.771796376811
H     -2.570011884216     4.708924965942     0.280715470718
H     -1.735204506167     2.450095416120     0.881723946380
C      0.265066717873     0.943891190277     2.663746397670
H     -0.623222788879     1.558806519814     2.754187437890
H      0.135827739738    -0.126081215742     2.779779035120
C      1.553966636257     1.477952241460     2.670274405919
H      2.399774225304     0.801953634130     2.714377517933
C      1.870928392368     2.900268720945     2.885709438513
O      3.058979829564     3.281549609649     2.722073641507
O      0.833088634813     3.813794823726     3.135731566158
C      1.200470133832     5.199639746842     3.137888084489
H      0.298295011508     5.816941820315     3.337350315536
H      1.952075411760     5.410235914732     3.931939749548
H      1.609279439546     5.500139379453     2.146672670181
Pd     0.978496056570     1.011267303095     0.520317548917
C     -0.561508402910    -2.437006289443     1.946544304125
O      0.741887422919    -2.107589591784     1.936359594325
O     -1.254291432764    -2.242165813435     2.977870607501
C     -1.252582246920    -2.938189239303     0.636900675987
H     -2.183273136209    -3.411712368049     0.982381754254
C     -0.449222784440    -3.964378696815    -0.127427004275
H     -1.084555131213    -4.404483341677    -0.924014525199
H      0.419872756513    -3.480133114383    -0.613612201845
H     -0.103852012487    -4.772385905617     0.549904808428
N     -1.575284095962    -1.861537148205    -0.313086651659
C     -2.101079384061    -0.739600133064     0.008965373191
O     -2.418808839316    -0.222337959601     1.248798950803
C     -2.441470517898     0.154015922385    -1.101287254736
H     -3.108658400130    -0.402641828412    -1.781412443938
H     -2.956931112631     1.049879231619    -0.716454903027
H     -1.510698602443     0.425701427845    -1.624599126882
N      1.274652220019     0.472334407474    -1.456837764882
C      1.125653750993     0.976960167748    -2.716746140847
C      1.451406857447     0.191885491725    -3.805886918029
C      1.927513700375    -1.094242310569    -3.633617858313
C      2.075313558509    -1.576809029174    -2.356989793745
C      1.724902223295    -0.749626887565    -1.269691926110
H      0.749824505736     1.983788439829    -2.858151134871
H      1.328561215469     0.589898197320    -4.799830075238
H      2.183249278820    -1.709983000804    -4.491846650358
H      2.445340410223    -2.560500443567    -2.154866756080
O      1.859815859642    -1.197558920051    -0.055571545771
H      1.204031178044    -1.904039044246     1.031457870289

