# STO-3G

title

0 1
C      2.301293858633     0.361457361657     3.185076079262
C      2.493462054032     1.599973407905     3.829648983224
C      3.480391553052     1.710337088164     4.832618351398
C      4.262651810602     0.593868385688     5.185558487295
C      4.061607846046    -0.635360240816     4.528894885868
C      3.081830384428    -0.759328314110     3.520240365242
H      0.600597489114     0.245143397670    -0.570021342612
H      1.895972469605     2.470480727383     3.567605858866
H      3.632193756746     2.664801342031     5.332340839004
H      5.021190777574     0.680959809767     5.959739563910
H      4.665993858324    -1.501452208730     4.789207107200
H      2.952486005703    -1.705540989734     3.002208086241
C     -0.457665861469    -0.978121762314     3.041073988005
H     -1.081748822228    -1.521967410127     2.337491433888
H      0.255280596105    -1.591823970247     3.578740909456
C     -0.702435587971     0.353512360664     3.374790204518
H     -0.147786943087     0.804238000510     4.182281980428
C     -1.846541745628     1.142061514248     2.883530277198
O     -2.665376621018     0.624651033711     2.079226878031
O     -1.940418545604     2.491389914185     3.260690192464
C     -3.043046716525     3.221641175472     2.703859087323
H     -3.015781618437     4.269903789537     3.072589316998
H     -2.982803822964     3.243570814178     1.591543479091
H     -4.013805471328     2.770870590211     3.012488196991
Pd     0.918627071389     0.232193676186     1.759915751189
C     -0.078864588907    -3.872796893831     1.000028848593
O      0.976071061263    -3.241002901193     1.558379244242
O     -0.729645461500    -4.750324853714     1.591962099434
C     -0.503927708541    -3.389678823528    -0.435229362464
H     -1.565592163883    -3.668524309286    -0.541749388225
C      0.299112398852    -4.074836376220    -1.515978509675
H     -0.059393201620    -3.739726244796    -2.510807021217
H      1.369960490004    -3.794524252696    -1.415182443383
H      0.192315278233    -5.176540933331    -1.438086576457
N     -0.200044444085    -1.980918772280    -0.519066841623
C     -0.948382196884    -0.965519732309    -0.505768901946
O     -0.382620356746     0.301754078542    -0.380251794859
C     -2.416536552276    -1.009105816229    -0.587213633337
H     -2.692906298264    -1.509805843638    -1.529691854134
H     -2.797801681647    -1.557525459789     0.289967586244
H     -2.806883824195     0.025079083631    -0.575179674849
N      2.385080859960     0.427260480483     0.288393765692
C      2.888485175924     1.642459026094    -0.085730603435
C      4.076501477364     1.718829459988    -0.780253258273
C      4.772531476625     0.578646168462    -1.113037341579
C      4.276572149159    -0.634030312905    -0.718038855889
C      3.069368424445    -0.701844230444     0.019724817197
H      2.338752330895     2.546217606315     0.149051871389
H      4.453938551791     2.682713368588    -1.077587371216
H      5.703855373662     0.640656665366    -1.669265803252
H      4.785356742819    -1.552336863308    -0.927715005939
O      2.710993427502    -1.857685435441     0.400302931018
H      1.561586906967    -2.596729086684     0.989122802186

