# STO-3G

title

0 1
C      0.402286111475     2.945554270019     0.216760393335
C      1.208208704639     3.965324530696    -0.329482626678
C      0.621572515838     5.199839983705    -0.679184652815
C     -0.757712884124     5.411023628970    -0.486174910544
C     -1.551344238323     4.384385066897     0.060767859373
C     -0.976698898016     3.145384026216     0.418027024634
H     -1.412694078804    -0.650263319376     1.753328116102
H      2.275703538269     3.813006865413    -0.477242261114
H      1.243508896969     5.989259207092    -1.096759994767
H     -1.207420317336     6.363723928297    -0.756251406861
H     -2.616843454177     4.541405519672     0.216367150593
H     -1.594025334467     2.354365065614     0.835259698845
C      0.591744671946     1.090732518652     2.753945293463
H     -0.338201295201     1.639256164590     2.868012311153
H      0.532193267046     0.008158342654     2.829432604048
C      1.831961027626     1.730972540940     2.731754256919
H      2.735082339819     1.132112466921     2.747925936982
C      2.031960083852     3.175046692547     2.942331227732
O      3.183770794184     3.653157120865     2.772489781740
O      0.927004235351     3.998799472924     3.216389534233
C      1.179141067967     5.410202149985     3.218418254934
H      0.233055991751     5.950580913308     3.436571461822
H      1.925210111970     5.679450165118     3.999873542765
H      1.544066814515     5.746358160056     2.221542667868
Pd     1.230771861897     1.188238969039     0.609306610699
C     -0.207448995682    -2.620286765349     1.278521901370
O      0.893735922561    -2.952465342754     0.611828172911
O     -0.208434295255    -1.801671933531     2.249838969740
C     -1.564652900983    -3.101852213044     0.707661874525
H     -2.264995192322    -3.155279928093     1.555224960798
C     -1.501627908933    -4.443134793821     0.020489640416
H     -2.520679111979    -4.737818232609    -0.304644400403
H     -0.854384832914    -4.363875992422    -0.877426410173
H     -1.096504733411    -5.212162791234     0.709265673162
N     -2.031977835794    -2.128248252055    -0.304323077172
C     -2.160709843585    -0.870070928956    -0.082747037897
O     -1.906576940901    -0.134211508762     1.054394098703
C     -2.662033678695    -0.071370660033    -1.205041810780
H     -3.639823135178    -0.488688325566    -1.499569263401
H     -2.767429121582     0.981750197449    -0.896271530377
H     -1.940442146572    -0.165709312213    -2.035193490235
N      1.480488348308     0.598563448658    -1.361887834291
C      1.208637140097     1.014060052293    -2.633180068243
C      1.457796237919     0.161940691232    -3.692632653422
C      1.979410065213    -1.100579719247    -3.477410920814
C      2.250876808939    -1.490615912997    -2.189017541535
C      1.980318385665    -0.592829761760    -1.136000765568
H      0.795084730032     2.001262408100    -2.805322031047
H      1.237230103063     0.487712735021    -4.695919800532
H      2.169137288901    -1.771462000619    -4.311132637551
H      2.646232229437    -2.457990019451    -1.953855737957
O      2.200712336140    -0.955544710196     0.107291471032
H      1.615573629535    -2.168702245591     0.528669132466

