# STO-3G

title

0 1
C      0.905144777741     3.070593361440    -0.159264368902
C      2.019359209135     3.931640206203    -0.141563556554
C      1.860449400074     5.285088891259    -0.509102323506
C      0.598306552700     5.776584653142    -0.892882170038
C     -0.511109976380     4.909084357711    -0.905803178414
C     -0.362660315219     3.554185079142    -0.541849992014
H     -1.321610484325    -1.204138270242     2.772126787648
H      2.999148937746     3.570527127675     0.165140546691
H      2.723547131835     5.947509935059    -0.486645783221
H      0.481041583322     6.820687361224    -1.173115443412
H     -1.492618021852     5.281229773570    -1.192527596796
H     -1.230734560082     2.900652102332    -0.550613478170
C      1.768542748046     0.871854393278     2.397018053575
H      2.753458460709     1.308016663114     2.540225088085
H      1.721154179479    -0.216472934669     2.364169352996
C      0.600871093804     1.621026106883     2.502885976830
H     -0.354181931856     1.114876664292     2.490541758173
C      0.562341513600     3.049402581028     2.865206686036
O      1.641785130624     3.679166410454     3.032145476354
O     -0.679620530498     3.705813494069     2.878554748691
C     -0.629884185946     5.130404318644     3.036917409016
H     -1.663240654367     5.538215000602     3.028736381760
H     -0.153981702331     5.405394803843     4.005489240810
H     -0.064401151665     5.599506130067     2.199052037954
Pd     1.149528963391     1.138286383975     0.239109708518
C      0.013970966687    -2.904575901862     2.153311566186
O      1.126066421801    -2.234870555473     1.774494685422
O     -0.213904997203    -3.147164725797     3.357559570905
C     -1.039204315864    -3.257116379159     1.048911168044
H     -1.863077471435    -3.746331181004     1.587198357041
C     -0.507910025968    -4.224290110150     0.017141198004
H     -0.175767634061    -5.163974706037     0.504741898130
H     -1.316467510335    -4.452544326061    -0.707451465117
H      0.339030236621    -3.771903099155    -0.536108945507
N     -1.562646907633    -2.100778851103     0.307069357693
C     -1.805172104323    -0.962568870453     0.829804909569
O     -1.633879044960    -0.523490790836     2.135562046192
C     -2.355374008649     0.066105561209    -0.056362294896
H     -3.300050321858    -0.328387389215    -0.468451973785
H     -2.547534280436     0.987144491934     0.521096362314
H     -1.634002592076     0.241467142166    -0.872550796266
N      1.056577959672     0.582309170498    -1.746346818650
C      0.837252564430     1.113816685389    -2.984201201307
C      0.837445176482     0.281958925628    -4.087806370041
C      1.065525377709    -1.075164144408    -3.951515186754
C      1.300407889439    -1.581855801566    -2.697146496262
C      1.288425478628    -0.703868465224    -1.594427269431
H      0.655456835089     2.176634591788    -3.096071617352
H      0.657020970805     0.700364532302    -5.064490133417
H      1.064070821327    -1.727245523902    -4.820951685500
H      1.489248110402    -2.620691594371    -2.523311363340
O      1.519404588159    -1.153570320258    -0.399190567418
H      1.227357782994    -1.945584411932     0.789996422561

