# STO-3G

title

0 1
C      0.822945771996     3.082523952108     0.046966963012
C      1.840030704567     4.023970356151    -0.191360992989
C      1.484827042775     5.350014029686    -0.524198019724
C      0.130620428718     5.723277656729    -0.616811401773
C     -0.876717112706     4.767885581341    -0.374527635725
C     -0.537406087454     3.439431734199    -0.044115552461
H     -0.900095922229    -0.335459456968     1.428188534618
H      2.889435496118     3.747164537384    -0.119887019216
H      2.268529625770     6.082458678408    -0.706822309595
H     -0.137355543406     6.745985374662    -0.871631566912
H     -1.925833311420     5.050624176666    -0.435523358747
H     -1.315376246880     2.703492122376     0.148526109931
C      2.236822301804     1.127160226032     2.401490217794
H      3.056674166428     1.837808358914     2.389819245586
H      2.496873691038     0.070651838600     2.358360007330
C      0.932457798840     1.487274427132     2.730886257990
H      0.210704008525     0.704590763153     2.915154892802
C      0.519902414647     2.845197475292     3.126956903319
O     -0.675671336427     3.048727259994     3.461450906195
O      1.459352373199     3.891642953592     3.084286347539
C      0.933512902558     5.208770912720     3.297555261190
H      1.757703411871     5.950269016693     3.229781829462
H      0.177717933725     5.460372617836     2.518510127279
H      0.468655009595     5.292338550858     4.306115869030
Pd     1.244269008951     1.181537870316     0.411955293009
C     -0.497152159902    -2.540404464491     2.241518917699
O      0.392392137405    -1.517948930879     1.940714099709
O     -0.717438017584    -2.862233642457     3.412795212362
C     -1.237001004381    -3.183240392411     1.025660369306
H     -2.097303106881    -3.702724675618     1.469271498223
C     -0.377542723597    -4.231185401547     0.350510526257
H     -0.982416208446    -4.775124777837    -0.405236988197
H      0.471219855597    -3.741508606805    -0.166297108627
H      0.005821265545    -4.959650882583     1.095107146541
N     -1.752423948086    -2.334989343205    -0.042514270963
C     -1.886508339290    -1.070319139454    -0.138802228551
O     -1.538752729585    -0.045944431329     0.730510747915
C     -2.547859315965    -0.584763066302    -1.354102566424
H     -3.553323114305    -1.037086000549    -1.388924331829
H     -2.617870492858     0.516039830059    -1.324200346576
H     -1.950790006652    -0.912752912906    -2.222211063493
N      1.017590257338     0.602373125607    -1.551278976697
C      0.693304112135     1.155861656101    -2.756143133891
C      0.541292700949     0.336646451786    -3.858582236394
C      0.723236311235    -1.029607492828    -3.755168929179
C      1.054282443320    -1.559053617095    -2.532709202953
C      1.190873645433    -0.695157342396    -1.426297781271
H      0.551525087812     2.227217607042    -2.842359011360
H      0.280478836936     0.773448040803    -4.808757576681
H      0.602517062526    -1.672424880901    -4.623162264777
H      1.196190455267    -2.609423001280    -2.383044938356
O      1.494866401872    -1.194111271786    -0.259751400140
H      0.815664857138    -1.514195762346     0.989477708903

