# STO-3G

title

0 1
C      0.607883467056     3.001102612575     0.060935428340
C      1.405659362922     4.101299527984    -0.311645944582
C      0.783264613287     5.318235022800    -0.662553280553
C     -0.620632409191     5.430075524700    -0.641694868877
C     -1.404557605003     4.321283089893    -0.268460707665
C     -0.796218730442     3.097687656387     0.086481302540
H     -0.667405728239    -0.690530326032     1.077336229130
H      2.491469792498     4.026982037173    -0.324882188423
H      1.397020693433     6.170875184281    -0.946398637145
H     -1.097437546185     6.369313844468    -0.912218132175
H     -2.489584184534     4.401253571882    -0.248839822783
H     -1.402875720711     2.240925478561     0.369089496311
C      0.684225057429     0.964771316872     2.523597007447
H     -0.317458518658     1.377973902686     2.566848255371
H      0.752977513563    -0.120318883987     2.561856123328
C      1.836147521406     1.740582010876     2.656707264410
H      2.798235171419     1.249515339214     2.738051883254
C      1.839389505723     3.181866894796     2.960819302919
O      2.937718825782     3.796057818270     2.948412354985
O      0.622842238639     3.852680552002     3.171528851606
C      0.702187710862     5.280407459152     3.277202813712
H     -0.317780568949     5.693579591776     3.430803093422
H      1.336047798131     5.580493685829     4.142050950700
H      1.113599188512     5.722240214963     2.341517779024
Pd     1.483083486662     1.264044371671     0.453024453315
C     -0.160821670968    -3.109217313433     0.574470398352
O      0.418347803447    -1.908184691808     0.968761120414
O      0.472859450211    -3.997744487261    -0.004812560903
C     -1.664424570986    -3.109990716189     0.955527781073
H     -1.707191613761    -2.787292042519     2.010870454941
C     -2.281148883808    -4.480968136874     0.833841707626
H     -3.334533395168    -4.445586330621     1.180827870913
H     -2.269278367260    -4.791438843508    -0.231750638040
H     -1.718246205451    -5.217557903053     1.443380631557
N     -2.475713228733    -2.215180475098     0.103629607986
C     -2.369294662054    -0.937671701723     0.128655722803
O     -1.485922515150    -0.156847192321     0.839638351863
C     -3.316573524147    -0.162600004148    -0.677761014207
H     -3.993741128662    -0.856074238324    -1.209880146479
H     -3.888616432913     0.483167666901     0.007488101449
H     -2.739004188352     0.439712834539    -1.399140733917
N      1.891829427659     0.737702100329    -1.508941983563
C      1.767299559730     1.203382346569    -2.785959354711
C      2.131538109676     0.389690485890    -3.842783839363
C      2.614244822545    -0.887246968651    -3.619563155887
C      2.731435818760    -1.330128246623    -2.325252152820
C      2.352646481217    -0.470482773098    -1.275316316471
H      1.384388950587     2.201657999725    -2.965146234542
H      2.029725290571     0.756008773508    -4.851094299645
H      2.891633861537    -1.528860927518    -4.451773233712
H      3.082857702268    -2.313030933203    -2.080953959075
O      2.432142956355    -0.885518187709    -0.033774563621
H      1.350915114478    -1.670052596276     0.562010075399

