# STO-3G

title

0 1
C      0.193258605333     2.542295020553    -0.905818824864
C      0.823219697076     3.599418397213    -1.594609198043
C      0.036335702810     4.539767910191    -2.291891583741
C     -1.367303723586     4.421772932406    -2.302453032802
C     -1.982897957459     3.361841075920    -1.610125751511
C     -1.208691300320     2.415123434380    -0.903406425305
H     -1.388384314088    -0.822068301710     0.364680109831
H      1.906745733464     3.701510951409    -1.588126065346
H      0.522058361402     5.358499048354    -2.819406216731
H     -1.972802919036     5.146661790385    -2.841689767042
H     -3.066542223304     3.263523913332    -1.610882987507
H     -1.703533783983     1.606904678656    -0.370649909494
C      0.440800423475     1.333444985817     2.018208848019
H     -0.614883778666     1.555093132445     1.916235335620
H      0.685768851232     0.342851030476     2.391418754405
C      1.428009886215     2.319122265058     1.958233206774
H      2.449702540694     2.062691521914     2.210581972227
C      1.155941236676     3.761548193385     1.833910926757
O      2.127606154181     4.547019202672     1.684123820757
O     -0.171696370138     4.221556454156     1.825948850284
C     -0.354899181968     5.605311670407     1.498451392979
H     -1.439961982584     5.844216692351     1.511140997088
H      0.157592598926     6.260636707356     2.238480934904
H      0.031226052690     5.822048837629     0.476641150094
Pd     1.346833402340     1.192992193960    -0.014776356279
C      0.379306867611    -2.049938627017     1.305519995470
O      1.657339553205    -2.044935633581     1.679393683301
O     -0.003478137133    -1.592049167498     0.184587510952
C     -0.607570815971    -2.544795086209     2.390881209378
H     -0.001622221182    -2.834365751424     3.254264457507
C     -1.389600109310    -3.756512043067     1.924936780009
H     -2.033173057297    -4.122444866375     2.752028889966
H     -2.036867032175    -3.470789278805     1.069476993261
H     -0.699461398703    -4.568172804113     1.615249380708
N     -1.585270797388    -1.549804285058     2.857257170055
C     -2.211714863639    -0.661933935639     2.174202472540
O     -2.116245447336    -0.315626891731     0.850933481029
C     -3.195515253061     0.129690340867     2.919888862884
H     -3.947910249694    -0.569403941185     3.322331127818
H     -2.664820429337     0.633732102795     3.744573708305
H     -3.670589575340     0.868371193153     2.249500992307
N      2.102980354778     0.333799378367    -1.741417861018
C      1.970714607924     0.397754752796    -3.098259835677
C      2.658186303505    -0.504096942330    -3.889783429248
C      3.465532888745    -1.471827284404    -3.321258742527
C      3.574417739705    -1.519259392486    -1.952938868163
C      2.857766631031    -0.581071446049    -1.181467154909
H      1.336597796031     1.153783683407    -3.547226052653
H      2.553278933527    -0.452243126818    -4.960911252862
H      4.001440192213    -2.182292379141    -3.944944616802
H      4.178908054476    -2.244543946060    -1.448491292117
O      2.933588914959    -0.623521342468     0.126490681363
H      2.291953570331    -1.540132148388     0.993257279263

