# STO-3G

title

0 1
C      1.303936757258     3.075490724994    -0.742680347476
C      2.395787242919     3.390791961316     0.088754996281
C      2.971248485246     4.678228598393     0.021283208907
C      2.460349542474     5.642373083690    -0.868193312214
C      1.368788714425     5.317544816711    -1.697168553324
C      0.787660477642     4.033655385260    -1.639398421778
H     -1.975016863745    -1.457267843495     0.884597894827
H      2.806056255872     2.655994426204     0.777773922204
H      3.814204998021     4.920188884211     0.665273925875
H      2.906424706402     6.632926590621    -0.914666552181
H      0.965573329299     6.056558433770    -2.386591158542
H     -0.057564341675     3.796335963242    -2.282992025055
C     -0.044035879216     1.167493338031     1.370813055775
H      0.663609072941     1.746646354573     1.953733121051
H     -0.006968248155     0.090463250118     1.504132629216
C     -1.132528922463     1.748848508328     0.715469540528
H     -1.906637768530     1.104457841604     0.320840140598
C     -1.472039015989     3.180175552714     0.783454410183
O     -2.393711055409     3.619243750408     0.048088530052
O     -0.690758351131     4.039868601007     1.575351126423
C     -0.974777352141     5.439894808463     1.450761701336
H     -0.292471660122     6.013373366875     2.114178783522
H     -0.806684500144     5.784455377379     0.405236286782
H     -2.023985051627     5.660695844647     1.751455189128
Pd     0.533349820667     1.250143651096    -0.777109768511
C      0.103392507149    -2.831882544360     1.357274533147
O     -0.627844571272    -2.138278518809     0.423354631985
O      1.258708460664    -3.230247559880     1.145680322819
C     -0.651639067812    -3.046702283402     2.697409888858
H      0.126518813729    -3.377852409138     3.392874202122
C     -1.675800872852    -4.161499272310     2.580655143960
H     -2.119135567979    -4.363525241072     3.578004855151
H     -2.484428492194    -3.849512957777     1.887465024020
H     -1.198785452167    -5.089306329608     2.202315458547
N     -1.320626920082    -1.895043254570     3.320211426200
C     -2.151462030962    -1.067320714615     2.800142930252
O     -2.574253882463    -0.932133681075     1.502826217876
C     -2.752813366760    -0.101763269980     3.725523705805
H     -3.290524085066    -0.674032693808     4.499978618384
H     -1.933337772460     0.479949649681     4.178339644628
H     -3.446803917498     0.559789135027     3.176822679088
N      1.571936735909     0.556299681102    -2.442492253431
C      2.530837456763     0.922278200964    -3.342086082356
C      3.035510954138    -0.022391212143    -4.216993014947
C      2.579134288512    -1.328160756652    -4.190360121980
C      1.612100958623    -1.669983351425    -3.277025883127
C      1.123638515133    -0.678013184412    -2.404004871254
H      2.892112508910     1.944208048339    -3.365045318315
H      3.793877790485     0.266577243244    -4.926096988343
H      2.978283215179    -2.069024104949    -4.878118056809
H      1.215662355333    -2.662161580060    -3.200417164411
O      0.210994124771    -0.969739855865    -1.520974459721
H     -0.161462437924    -1.825195974773    -0.459733845032

