# STO-3G

title

0 1
C      1.131015369276     3.019963607458    -1.296911483120
C      2.048434232287     3.864085677090    -1.950124142318
C      1.563024829812     4.938462343389    -2.728194443072
C      0.177904194850     5.159001746434    -2.849963657356
C     -0.726859405393     4.303372805948    -2.190409689335
C     -0.257063244191     3.225974933365    -1.409779123655
H     -0.175860289481     0.222675350228     1.058379240230
H      3.120582357475     3.697731814258    -1.869659663063
H      2.268277919889     5.596150027302    -3.232423882811
H     -0.192335282613     5.990284585040    -3.445394876710
H     -1.798441929278     4.474916457772    -2.271108300190
H     -0.953814406230     2.571840684771    -0.892147386754
C      2.463436349325     1.878642757306     1.762310277677
H      2.229758881152     0.966921204074     2.308322961844
H      3.508239364578     2.030306864443     1.504213550086
C      1.523267478092     2.877660747795     1.568815980531
H      1.813266408411     3.798437177304     1.088036478079
C      0.186536935953     2.910581413019     2.193875376007
O     -0.560363263880     3.895110119586     1.950815767585
O     -0.100333021706     2.026949558722     3.251990827604
C     -1.382517229969     2.196576583871     3.874102726351
H     -1.504588839457     1.446114816052     4.683887318771
H     -1.473173084557     3.210692122073     4.325043509409
H     -2.202121743739     2.045495803137     3.135839529864
Pd     1.795161176829     1.403223993202    -0.337751696208
C      0.142036016002    -2.041512870113     2.112828741675
O      0.826776898637    -0.978404678162     1.539005282854
O      0.514996403699    -3.214559207377     2.009610259807
C     -1.110977018586    -1.501888302206     2.852007184115
H     -0.750977102211    -0.648989349601     3.451262432651
C     -1.709120822147    -2.530846680529     3.778709120451
H     -2.551555511286    -2.078261749554     4.341345541655
H     -2.098861812512    -3.378016563839     3.176788323357
H     -0.946602079990    -2.901499583883     4.494377542956
N     -2.202284306544    -1.078690991669     1.951239602854
C     -2.112760935342    -0.135073258059     1.087131932986
O     -1.032799666272     0.647204824050     0.746979138065
C     -3.345416344953     0.198054093740     0.368053652271
H     -3.666955710066    -0.706138407314    -0.175884353741
H     -4.102051494483     0.479426096161     1.119062098488
H     -3.159080423854     1.031545619059    -0.331892496676
N      1.768165596864     0.240491997185    -2.036451416911
C      1.423749252985     0.311315046380    -3.355230078620
C      1.554291080988    -0.813428530529    -4.149128439845
C      2.023044199047    -2.002705990516    -3.620275629001
C      2.362582840120    -2.044290054278    -2.290054680429
C      2.215517462322    -0.877008350261    -1.514412462609
H      1.052808770365     1.240957416295    -3.771951954369
H      1.280165364389    -0.759299288694    -5.189871967615
H      2.119422534204    -2.887100869758    -4.244510665569
H      2.725071351866    -2.932914050041    -1.813571858577
O      2.523419123176    -0.893436398488    -0.241316885095
H      1.597073032886    -1.169162372054     0.867497899723

