# STO-3G

title

0 1
C      0.561120961672     2.220638687695    -0.310586114242
C      1.196382629207     3.382619595880    -0.798727597100
C      0.427788682797     4.391413882318    -1.416034104385
C     -0.967052238146     4.242684918209    -1.544124844800
C     -1.590514922279     3.079929477340    -1.053888190516
C     -0.831467904211     2.062502783625    -0.435190327815
H     -0.968362035040    -1.730070057896     2.483835127442
H      2.272682715465     3.516111672921    -0.698070952090
H      0.921172334960     5.286991989337    -1.788773091705
H     -1.558514118437     5.021914480011    -2.019247020212
H     -2.666691629981     2.951586818948    -1.147486056857
H     -1.343509849245     1.174847582276    -0.075892592551
C      0.857199988522     0.682024126390     2.486773906230
H     -0.208769827071     0.869399470074     2.449940462017
H      1.146353748065    -0.348530849989     2.674144680539
C      1.793027740030     1.717524748734     2.531634489224
H      2.831957472537     1.488070752390     2.732569502865
C      1.439271840694     3.145857450042     2.592485472533
O      2.361967483101     3.997440230926     2.507157838253
O      0.085643708675     3.525507355026     2.598052446879
C     -0.175107721761     4.927790993320     2.451739339034
H     -1.272772295392     5.099942965406     2.463817592387
H      0.279799032629     5.505992767378     3.287567460751
H      0.219805425525     5.302499571208     1.480299190171
Pd     1.732395132273     0.802664752720     0.452724073751
C     -0.686663824845    -1.857173329330     0.120760503831
O     -0.146529358379    -1.411227860705    -1.022591533790
O     -0.001629931964    -2.104304393083     1.153147959445
C     -2.230396891538    -1.924406095070     0.187236484512
H     -2.471220861725    -2.839097351786     0.753572163057
C     -2.909450281229    -1.974180077325    -1.159020362067
H     -4.003289715659    -2.092027896354    -1.014386581560
H     -2.726751351744    -1.021514913031    -1.697766154335
H     -2.524024021020    -2.825285872134    -1.756797866495
N     -2.754792905379    -0.724429553609     0.881261066988
C     -2.478454376875    -0.486220792616     2.116998304569
O     -1.632085469385    -1.147364586216     2.964190151431
C     -3.165270003252     0.658721346451     2.722424877149
H     -4.250206145478     0.476702356033     2.643276207378
H     -2.862595788236     0.748819889933     3.780403053753
H     -2.884855625205     1.565829426807     2.159147430595
N      2.277484619849    -0.156564833589    -1.339174578270
C      2.312771630702     0.118652980369    -2.679318524293
C      3.330413026585    -0.400853005526    -3.454127183797
C      4.324184258073    -1.185004948276    -2.898598145208
C      4.308251835233    -1.414473313304    -1.546307757753
C      3.278108510031    -0.854023140325    -0.764599512460
H      1.523140313400     0.707845557653    -3.132307232096
H      3.339233531064    -0.200170095612    -4.513433090489
H      5.116613592533    -1.595503439434    -3.519096536920
H      5.071250844398    -1.977360270616    -1.046525255480
O      3.302979665169    -0.964650731025     0.512812939118
H      0.825296148340    -1.109245113377    -0.970213738669

