# STO-3G

title

0 1
C     -0.349942112461     3.018468082642    -1.326181009502
C      0.096426596800     4.298437776537    -1.705915998231
C     -0.678030093948     5.057250448069    -2.610581015494
C     -1.880015392702     4.537365141390    -3.127624161292
C     -2.311634934824     3.253486349958    -2.739444512854
C     -1.549531766909     2.483358891144    -1.835256035239
H     -0.751225235048    -0.599132665950     0.324338244225
H      1.029717642755     4.705684698259    -1.321909679814
H     -0.337859739416     6.047890512438    -2.905838633131
H     -2.473479530165     5.125881403210    -3.823495444248
H     -3.239892412705     2.846709012390    -3.135588921322
H     -1.881899188010     1.492056111982    -1.535518054883
C     -0.632260261791     2.228178904206     1.557467406493
H     -0.667037051655     1.267883534904     2.062206111968
H     -1.552456484798     2.545042196985     1.082106068986
C      0.445732468161     3.101155453902     1.710616653519
H      0.385376694791     4.111732691271     1.336680507726
C      1.615985899597     2.805518045067     2.556188735786
O      2.573953016929     3.620532131772     2.564541479355
O      1.708970299098     1.548068024935     3.171243807570
C      2.990668358406     1.196078122298     3.707503696430
H      2.931851541521     0.178341091798     4.153132300252
H      3.759560220148     1.170143495936     2.901972975873
H      3.301077902777     1.910670355106     4.502472366974
Pd     0.777959629648     1.881046148694    -0.155985872057
C      0.307604915957    -1.607683562266     2.454591874510
O      0.503310042375    -0.905024890503     1.287010192662
O      1.224051352945    -1.886020150543     3.239512658049
C     -1.171283697034    -2.033613070224     2.679200661761
H     -1.234744614126    -2.193756059688     3.761087555111
C     -1.453222367533    -3.364360602317     2.004306167649
H     -2.470424307399    -3.713031265306     2.280172441026
H     -1.405419003781    -3.236403609260     0.903224409677
H     -0.712827839167    -4.127351162060     2.323468326163
N     -2.267106816843    -1.129231980155     2.316599049928
C     -2.483747052577    -0.484532435206     1.232192763680
O     -1.697915472384    -0.331173500362     0.114385834504
C     -3.776146803278     0.204159380847     1.147833396672
H     -4.564831500353    -0.561692935133     1.241722679931
H     -3.834262165105     0.910552183728     1.992595328447
H     -3.861539624385     0.732385816472     0.181901306157
N      1.821858880999     0.956304738109    -1.680273073962
C      1.916953681614     0.982677077988    -3.041543869941
C      2.872727189430     0.205886662790    -3.669481168743
C      3.726717200966    -0.596337066763    -2.935401256975
C      3.609189102362    -0.605883948407    -1.567412619179
C      2.622647371376     0.199258094090    -0.961467482778
H      1.248161784216     1.609301509842    -3.620748978200
H      2.946617836167     0.226881256868    -4.744318644708
H      4.476416522415    -1.207125421125    -3.431318394614
H      4.238297018346    -1.201915793644    -0.937993886868
O      2.502262657904     0.199115084848     0.340127838661
H      1.452082789689    -0.544552543521     1.048971907478

