# STO-3G

title

0 1
C      1.194892595041     3.067967718415    -1.364143589523
C      2.032601095915     4.118843534434    -0.946198514994
C      2.227384325404     5.231923722253    -1.793094477193
C      1.589696752847     5.294637372909    -3.046456907275
C      0.749777598616     4.239616762399    -3.454356785228
C      0.549259713336     3.122415794494    -2.616687932589
H     -1.849989165951    -0.665914126308     0.121210782320
H      2.531234479015     4.088456506221     0.020518568035
H      2.872447664521     6.044195764514    -1.464494126211
H      1.739895902116     6.155917104442    -3.692887695286
H      0.245967776161     4.283794902220    -4.417711599482
H     -0.104866377190     2.316042160016    -2.940450718266
C     -0.847427279623     2.391403686036     0.541371689551
H     -0.823528950750     3.440322148306     0.271402481714
H     -1.593905964823     1.762834553387     0.062198127398
C     -0.126643649820     1.897904210850     1.627645432302
H     -0.297572726159     0.877744918260     1.948895369374
C      0.695412646388     2.709472293821     2.541528929781
O      1.030445049823     3.874899633906     2.202714118533
O      1.252104296570     2.090894037002     3.671630412287
C      2.097453673559     2.913127411578     4.488500016291
H      2.466268959904     2.316868536048     5.351281584682
H      2.980733903943     3.270339855390     3.911963009361
H      1.534847404925     3.788007516765     4.886393559136
Pd     1.031692399273     1.404448616004    -0.285946149058
C     -1.191048766652    -2.237632499717     1.999038541222
O     -0.773411627313    -1.488128145940     0.921367941611
O     -0.408001391072    -2.868981718667     2.721230385988
C     -2.729647449667    -2.216803943855     2.216948190437
H     -2.851427118249    -2.545504168292     3.254583258884
C     -3.417743367356    -3.237661547526     1.327747125259
H     -4.495936544450    -3.288291350899     1.586904690581
H     -3.319408018015    -2.928644594291     0.266716389956
H     -2.965997913685    -4.241847289723     1.467171649215
N     -3.463577521485    -0.953827302973     2.079118149118
C     -3.440178309197    -0.103246202629     1.123087631377
O     -2.644613655127    -0.054342051126     0.001905411299
C     -4.409778118527     0.992875712996     1.217655833173
H     -5.416109804982     0.542877121150     1.259950799065
H     -4.199040820459     1.541201075056     2.150943815474
H     -4.316555435601     1.656116874517     0.340014637983
N      2.348128267745     0.285403187116    -1.439462423163
C      3.139795770918     0.358242415215    -2.548738903773
C      3.828570771403    -0.767275868422    -2.963582889223
C      3.726937037947    -1.957532556447    -2.265291281905
C      2.928569867195    -2.000523864992    -1.148326625699
C      2.245269982718    -0.831428799136    -0.759237649686
H      3.219762119219     1.288747273210    -3.099384844340
H      4.451430904533    -0.711079773812    -3.841254193767
H      4.270916528911    -2.839926193432    -2.591843954194
H      2.812726869431    -2.884350990146    -0.553831100569
O      1.489310360544    -0.832432952153     0.306861742211
H      0.250513605204    -1.390009331767     0.728597287276

