# STO-3G

title

0 1
C     -0.401270780815     3.260039619933    -0.185809764709
C      0.318172338065     4.412555230718    -0.555606015500
C     -0.359703464273     5.467812510097    -1.203120081470
C     -1.738406491289     5.368088663000    -1.474394375959
C     -2.443493570885     4.208803528574    -1.097090364457
C     -1.779214422454     3.144443949631    -0.450013567180
H     -1.466047914228    -0.321416792958     1.343940884080
H      1.382618707083     4.499133690605    -0.348215459601
H      0.190261434539     6.362520154161    -1.488207359700
H     -2.256977819393     6.185047048534    -1.970819831877
H     -3.508869304228     4.125994446645    -1.302573615704
H     -2.319764471613     2.243589181948    -0.170623394744
C     -0.425681147488     1.787895346208     2.629685941637
H     -0.163957879713     0.811812424020     3.033767927635
H     -1.477580456791     1.947198640741     2.410387373866
C      0.468209425736     2.860429485442     2.606768925722
H      0.106223529946     3.841945787270     2.346973172471
C      1.840117525741     2.823119114548     3.141741069347
O      2.399099507722     1.711671127704     3.322630372152
O      2.577049138462     4.018679801759     3.159667490163
C      3.934833105344     3.909974568868     3.611614350299
H      4.410642381435     4.914350091253     3.597191204356
H      3.975591659852     3.521472752377     4.654843050271
H      4.522828175146     3.238011597289     2.945399269232
Pd     0.531989566607     1.706879763892     0.625475313159
C     -0.880466090063    -2.426794055079     2.286575742473
O     -0.180839302930    -1.231570764582     2.231371694029
O     -1.366162513303    -2.829862084826     3.348174509573
C     -1.095296614904    -3.160678056404     0.927026932635
H     -1.934217698169    -3.845586254985     1.111746433603
C      0.104200585933    -4.009747000220     0.565519884704
H      0.304408138806    -4.754728249528     1.363580184119
H     -0.101611397421    -4.542549379223    -0.385919091948
H      0.997250081078    -3.368268819218     0.428441201870
N     -1.428574618956    -2.395386461742    -0.269510567843
C     -1.776017503421    -1.178488921342    -0.427903701491
O     -1.930550464536    -0.144397424294     0.486316555384
C     -2.115866316325    -0.785544131399    -1.799378622318
H     -2.951068763766    -1.424769162013    -2.131727181154
H     -2.405935010177     0.278015151616    -1.823234426163
H     -1.228133557413    -0.959232178198    -2.432155080617
N      1.080677260922     0.889739037283    -1.189126415566
C      1.059725251124     1.222994379846    -2.512469217161
C      1.464544294920     0.294642568822    -3.452064991233
C      1.899390922521    -0.958859458029    -3.064986305795
C      1.915071199481    -1.266363088359    -1.727743473172
C      1.480044168136    -0.300693273910    -0.795645930565
H      0.722588205087     2.206193872461    -2.820291255369
H      1.443959208223     0.556837559741    -4.497126187437
H      2.220088988132    -1.687601082467    -3.804654574977
H      2.233323713764    -2.220583146552    -1.363075738263
O      1.470424797033    -0.593485402792     0.473285179946
H      0.526092624580    -1.099465744612     1.476974023125

