# STO-3G

title

0 1
C      1.599972321343     3.151814011027    -0.456457754067
C      2.698226107631     3.900717205903     0.007072709712
C      2.719783084699     5.298504220080    -0.190372319601
C      1.650979834658     5.943547374240    -0.840886678319
C      0.553446755086     5.187185702582    -1.297185311184
C      0.524133656693     3.789826404834    -1.109136442072
H     -0.224870159287    -1.189838484595     3.139136468094
H      3.527902084399     3.418482804318     0.519102112813
H      3.567251726254     5.875820461262     0.173492089154
H      1.670463103137     7.021299933412    -0.983657420641
H     -0.279929509881     5.679127001750    -1.794356038723
H     -0.331047856754     3.216873343190    -1.461304019947
C      1.739344150497     0.915836300162     1.894892079935
H      2.435468457275     1.626161552280     2.329216324553
H      2.032077108805    -0.130914115801     1.865632623224
C      0.404495132320     1.249305527105     1.656928812867
H     -0.292559404412     0.470743247440     1.388555830870
C     -0.221643018252     2.526160751768     2.038876248393
O      0.473965434736     3.432821724660     2.569746103525
O     -1.558297468652     2.752235132679     1.666200070668
C     -2.076235282791     4.055633345253     1.966260464894
H     -3.133739800961     4.119016028966     1.631316137548
H     -2.045521690277     4.250503685235     3.062507236181
H     -1.493535550805     4.843253394610     1.435148160576
Pd     1.573108897367     1.177738850024    -0.309185208155
C     -0.192240929947    -2.520357958464     1.150208519835
O      0.015462411435    -2.644716227895    -0.152520312075
O      0.628222802229    -1.929660256180     1.923751892779
C     -1.542176522961    -3.011948291490     1.731698633642
H     -1.293126211680    -3.528237837096     2.673963999289
C     -2.291611895709    -3.960317228922     0.828502009236
H     -3.204385183955    -4.319077722312     1.347459751566
H     -2.597698830087    -3.421355722432    -0.091647296121
H     -1.654311066879    -4.828131229113     0.562207355048
N     -2.452274400351    -1.874864515720     1.993571723728
C     -2.167353440738    -0.918766980645     2.806016749663
O     -1.009294420372    -0.665635356470     3.495247087331
C     -3.229990065697     0.062655785507     3.043752997454
H     -4.101739766506    -0.479724212917     3.445874717031
H     -2.873422127905     0.820306647477     3.762801496090
H     -3.479397338485     0.534077946162     2.077518729735
N      1.945203859479     0.753891040481    -2.313818772769
C      2.169048893659     1.354629530170    -3.518775816975
C      2.289495811331     0.573158258129    -4.653389276328
C      2.190125745148    -0.804522390413    -4.578792295702
C      1.971844887415    -1.384371239820    -3.352782144832
C      1.858472210344    -0.552471868970    -2.220772167631
H      2.243790285473     2.434384810822    -3.581912149617
H      2.462936416593     1.048200616951    -5.605230056641
H      2.285523096380    -1.416101277888    -5.472205102411
H      1.892000638116    -2.444746996834    -3.223922083266
O      1.659145979885    -1.072228538792    -1.038673962073
H      0.806679818791    -2.060050028737    -0.554990052210

