# STO-3G

title

0 1
C      0.684977678437     3.592954129054    -0.368510811259
C      1.804992335435     4.446638784800    -0.289093518591
C      1.684961431289     5.794096219435    -0.688343925750
C      0.456572167928     6.286084938276    -1.170981592377
C     -0.654873346271     5.425837873323    -1.253179912837
C     -0.546806247409     4.077140742247    -0.850791853391
H     -0.730743579390    -1.543783206004     1.831149858246
H      2.760759335423     4.077939073052     0.079064365817
H      2.549501094057     6.451359403401    -0.621682731871
H      0.366505529241     7.325156670475    -1.478478981167
H     -1.607345662395     5.797574739490    -1.625340487217
H     -1.414962662701     3.425948654460    -0.923554725920
C     -0.639686757307     1.723667289218     1.689057697955
H     -1.295172747143     2.570752327994     1.515896553497
H     -1.079138572687     0.734792501789     1.575525834814
C      0.598038598975     1.880615832191     2.320697007935
H      1.159494765556     0.999602609310     2.611366739239
C      1.099449275719     3.153631254345     2.865808365501
O      2.289380973079     3.207508565037     3.270663595518
O      0.303535323795     4.308310271195     2.772542132112
C      0.923849208289     5.535610802460     3.179267151355
H      0.200548829316     6.370259672628     3.056277904952
H      1.228404239672     5.490859273684     4.249469896904
H      1.813871710689     5.756456514109     2.547577240013
Pd     0.939311179707     1.682694818543     0.094169354480
C     -0.063263227941    -3.405723076146     0.328408516391
O      0.382940424412    -2.274920160406     0.980856431660
O      0.492935765638    -3.854535601872    -0.685376869436
C     -1.326190455015    -3.963629317384     1.036756459624
H     -1.057190160392    -4.046595724247     2.104603337573
C     -1.716884660518    -5.325933035088     0.520278003703
H     -2.578044599470    -5.710522964571     1.104866584623
H     -2.020971566360    -5.237518349979    -0.543260799767
H     -0.867633650012    -6.034368280741     0.608582147644
N     -2.515558730122    -3.101965785958     0.870560602115
C     -2.604480614721    -1.913928704128     1.345884262379
O     -1.655393212296    -1.166213249735     2.004035219431
C     -3.893874165377    -1.228943735068     1.210061185516
H     -4.606850446986    -1.895188262564     0.690063946964
H     -4.255204002240    -0.998595957350     2.225423903852
H     -3.733654161323    -0.306548993724     0.628662650022
N      1.850493076296     1.053311203087    -1.680756551648
C      2.175417012803     1.454404003758    -2.944341338492
C      2.621487011576     0.518182303401    -3.859832620413
C      2.739427874540    -0.815589450745    -3.509267417832
C      2.413676956996    -1.191309749519    -2.229438194325
C      1.971192666285    -0.204654160785    -1.328161217416
H      2.077321570900     2.496975244331    -3.224907287535
H      2.872936545767     0.833992488399    -4.859007521370
H      3.079271394388    -1.551939460843    -4.232854383787
H      2.462569404643    -2.211267204572    -1.898023915906
O      1.634211551480    -0.526202279832    -0.106464912110
H      1.047230030080    -1.639645104734     0.447421300435

