# STO-3G

title

0 1
C      0.605951553872     2.998970482584     0.095039503683
C      1.796549295515     3.746880994877     0.212683057432
C      1.780013574629     5.131729081994    -0.057994707174
C      0.583791176469     5.766269292227    -0.444359714597
C     -0.596717723165     5.008667834534    -0.569672867159
C     -0.590218767216     3.621789615976    -0.308506520815
H     -1.818836495905    -0.257746410952    -0.383814169285
H      2.727630921331     3.275006476267     0.522643762373
H      2.699097580487     5.706504962677     0.036462604866
H      0.572215652017     6.833711277426    -0.651388485177
H     -1.523397456515     5.486941889540    -0.880253364415
H     -1.496650298254     3.037873308775    -0.447072375998
C     -0.609500772348     1.123842286271     2.269663481654
H     -1.297785474121     1.954968381688     2.145313063523
H     -1.048081246081     0.138642188357     2.129915925589
C      0.686518274315     1.295285164095     2.754230623022
H      1.286449759870     0.426282713292     2.984089250890
C      1.221009159380     2.580029531884     3.236986991352
O      2.452146167908     2.665344405750     3.485693999038
O      0.377154677288     3.701621399532     3.313001752625
C      1.003159553538     4.937399835060     3.682831355175
H      0.239299134303     5.744250383875     3.698223696284
H      1.456703798080     4.864130943296     4.697017600762
H      1.786345785068     5.219974751051     2.943966683324
Pd     0.694640493325     1.046096203537     0.443424037040
C      0.675916343674    -2.049421978483     1.742630204207
O      0.991255322237    -1.276188051802     0.609989451921
O      1.222761564106    -1.776951591634     2.811298800824
C     -0.377300997399    -3.177385201425     1.553498184027
H     -1.128521144105    -2.959840346848     2.330776080154
C      0.225944840117    -4.531278087757     1.845095767769
H     -0.573931930053    -5.301097212239     1.831602981765
H      0.967739029165    -4.783881675707     1.060077780879
H      0.714442854065    -4.538956995460     2.842210830381
N     -1.001006850348    -3.282700027081     0.235082224001
C     -1.662802549055    -2.296040452161    -0.267360535640
O     -1.798948476483    -1.069931367432     0.305339323560
C     -2.345677908790    -2.541015669164    -1.547555714064
H     -2.220198595875    -3.599894618069    -1.838465511443
H     -3.412826635840    -2.305979723464    -1.400963093193
H     -1.913338398898    -1.876796579782    -2.313290866373
N      0.691761246906     0.779825917540    -1.616372194871
C      1.806448495920     0.931702766857    -2.393351702489
C      1.691135274235     0.967545976838    -3.766306063157
C      0.457406170309     0.869321717681    -4.370757111417
C     -0.650500866004     0.730182262908    -3.578290340736
C     -0.513578156175     0.700777368886    -2.169637559306
H      2.781651374292     1.009767231832    -1.927096103081
H      2.576270129552     1.085171400596    -4.369550584569
H      0.364365545276     0.907284629361    -5.452831105542
H     -1.639670543309     0.670737627083    -3.985041068116
O     -1.609422428143     0.596058903149    -1.496479896647
H      0.521685932315    -1.598823530346    -0.194387659852

