# STO-3G

title

0 1
C      1.463833643787     2.747636510188    -1.225961012521
C      2.774849218563     2.388823312955    -0.862393433150
C      3.851685042638     3.112660965947    -1.419149920007
C      3.617563846918     4.170427518206    -2.319296535515
C      2.297431486544     4.514213169222    -2.669252617076
C      1.207781972110     3.801554258694    -2.123326664477
H     -0.933772003825    -0.745178501653     0.522029147019
H      2.958322303319     1.572103871324    -0.168032106816
H      4.868559232599     2.845435170267    -1.139955022651
H      4.454130322370     4.723388383626    -2.740184110491
H      2.108707703782     5.333171197628    -3.360598223806
H      0.190858704399     4.070372291399    -2.402364563451
C      0.221655974912     2.397470475075     1.562198068342
H     -0.167950869902     1.605915853923     2.196023206582
H      1.291270044875     2.558283359128     1.622266811837
C     -0.617268524991     3.301676258170     0.910205532326
H     -0.195408609403     4.172999981738     0.433610639956
C     -2.087307417450     3.292645853867     1.011920025625
O     -2.741247677974     4.117116182680     0.323182157371
O     -2.723764767432     2.276219753769     1.743633978753
C     -4.153179528701     2.225685289605     1.635642566107
H     -4.540651930011     1.388496067604     2.255359648609
H     -4.613793030171     3.171774815104     2.000523624009
H     -4.462290816167     2.043441646819     0.580945193639
Pd    -0.046580870011     1.656315560925    -0.539862499181
C      2.527489473668    -0.209421607423     2.629698758443
O      2.091365702858    -0.006594683623     1.346444469036
O      3.591392473186     0.285675726048     3.027508219210
C      1.642737357401    -1.099589662051     3.575344858242
H      2.018535287734    -0.863483865726     4.575295258062
C      1.887137317840    -2.577008478911     3.324933353388
H      1.353949667902    -3.175007556033     4.093662291900
H      1.501388576438    -2.861484291437     2.324630559769
H      2.971968207502    -2.805355559132     3.383649607391
N      0.187552267364    -0.893907225679     3.608749096430
C     -0.619866869908    -0.856400052198     2.624142240732
O     -0.257216433619    -0.932317055661     1.293667708450
C     -2.048854463459    -0.742717075634     2.942863353966
H     -2.324517800017    -1.613699925765     3.560657983778
H     -2.191362579326     0.190581884346     3.513013826355
H     -2.645792381812    -0.720042802969     2.013203270844
N     -0.130024281521     0.423796033968    -2.192279307752
C      0.453951327133     0.354193838228    -3.424875171049
C      0.005245602687    -0.581374527015    -4.337797084214
C     -1.022185159585    -1.447336239614    -4.014714705853
C     -1.588556912388    -1.360137589021    -2.767942444500
C     -1.102626903272    -0.395934719993    -1.858622375782
H      1.259820692551     1.031496235471    -3.683844636945
H      0.466817174241    -0.634020039020    -5.310001080747
H     -1.373170530494    -2.183877128200    -4.732453114894
H     -2.382792944942    -2.001699529012    -2.446050748159
O     -1.638609023941    -0.316248668546    -0.668266896188
H      1.182443138364    -0.428234960695     1.161336731838

