# STO-3G

title

0 1
C      0.368552363061     2.521304337706     0.310305420349
C      0.760185472506     3.693784282089    -0.369581718187
C     -0.158992820350     4.753306339253    -0.518867433822
C     -1.460653240729     4.644315325834     0.008507368703
C     -1.840242250696     3.473787051055     0.692009959478
C     -0.927319526442     2.408764085070     0.850510122942
H      0.204997728229    -0.497843967566    -0.904721410914
H      1.767214224907     3.796090152898    -0.770915585268
H      0.147107335485     5.658642123438    -1.039281699154
H     -2.167266058872     5.462800106114    -0.106070026496
H     -2.840531514106     3.382155642283     1.109769162239
H     -1.237009138591     1.517252654476     1.390566428875
C      1.566598510204     0.639651065113     2.577585238839
H      0.570153374278     0.857322732865     2.944242543058
H      1.816154160488    -0.417459685573     2.549751275593
C      2.540515093053     1.622146664951     2.372499986719
H      3.556387133799     1.322655647108     2.144762125962
C      2.365176145255     3.047458182516     2.700208153323
O      3.261678676285     3.857984943452     2.349688889580
O      1.151660149539     3.487549514924     3.254980778015
C      0.974245876692     4.908093336847     3.334676723642
H     -0.018466398627     5.128541607305     3.782742258080
H      1.758363012650     5.371608008079     3.975136574449
H      1.001413895318     5.365476964598     2.319614371577
Pd     1.659253405665     1.011977749305     0.384329353767
C     -1.752546829125    -1.893599812160     2.441308433447
O     -0.553059817778    -1.278857325681     2.183868377583
O     -2.149213547982    -2.063670308132     3.600580732253
C     -2.602786232711    -2.371099105010     1.212075603621
H     -3.601694804928    -2.523993761354     1.630584712487
C     -2.111076011459    -3.705839816593     0.679411846281
H     -2.803165418422    -4.065165875548    -0.110808948203
H     -1.098729516068    -3.593674557015     0.240455868617
H     -2.078633394237    -4.457818344352     1.495440500355
N     -2.750264398390    -1.454260102386     0.073504768100
C     -1.831657538740    -0.895540884123    -0.600122679756
O     -0.470972921299    -1.013656743824    -0.345575746569
C     -2.219798933380    -0.050387188140    -1.737137435213
H     -3.321645240896    -0.055112639470    -1.832140176009
H     -1.859964691194     0.972615671477    -1.538846956180
H     -1.755814771307    -0.466621899594    -2.647337639338
N      1.504033914704     0.339347777772    -1.638866138033
C      1.196430597723     0.859511777701    -2.865322331295
C      1.941999557910     0.499782345987    -3.971126389904
C      3.004166300260    -0.377395726207    -3.861448050883
C      3.338404817833    -0.861066407049    -2.622861854228
C      2.580792374611    -0.463739628092    -1.501460002722
H      0.350214603684     1.528437561720    -2.970880484305
H      1.678375066623     0.899885522561    -4.936463416007
H      3.579387019110    -0.661677874055    -4.738649801097
H      4.174890255573    -1.510395252153    -2.461936179634
O      2.948221929003    -0.812828728241    -0.322720253180
H     -0.330554821042    -1.214600543267     1.198834352194

