# STO-3G

title

0 1
C      1.456827460772     2.811264896988    -1.253211617343
C      2.773075850932     2.432628625256    -1.590921002222
C      3.562812878578     3.282848889409    -2.391927105762
C      3.042232735939     4.501753783377    -2.869532716692
C      1.722441606963     4.867413905464    -2.545394241118
C      0.926260404989     4.025402317506    -1.738606679350
H     -2.131697752747     0.883891906540     0.481692114916
H      3.177112716561     1.480290548283    -1.254460789021
H      4.577594063112     2.983980631926    -2.646466872700
H      3.654612692166     5.152699527678    -3.489099234100
H      1.308491177216     5.803525923346    -2.915457941760
H     -0.094432144404     4.324325153768    -1.507532253960
C      1.238834727831     2.513410282552     1.740078933157
H      1.264589400286     1.674618873433     2.426355352686
H      2.197626795708     2.828308954037     1.343038304204
C      0.082513686549     3.243851945545     1.489842958847
H      0.129142055124     4.119248094697     0.860806764307
C     -1.177097773587     3.077396645616     2.236315098587
O     -2.191001062910     3.717729569577     1.852379680746
O     -1.205469998291     2.277194038045     3.392316449410
C     -2.498060503397     2.065212170119     3.975480872014
H     -2.395720480280     1.412412580661     4.869054446355
H     -2.951806983533     3.029709357969     4.298061719276
H     -3.176006781035     1.556457186786     3.253105580244
Pd     0.355164644204     1.597866696237    -0.120340471924
C      1.341126054135    -1.327688196751     2.367379464567
O      1.430170477055    -0.447444157503     1.345041580234
O      2.214285218383    -2.139880990481     2.711277611934
C     -0.062613863829    -1.167879312603     3.049420457383
H     -0.174248232559    -0.102977115571     3.304740678199
C     -0.225019409863    -2.018366425354     4.284094188275
H     -1.234267488118    -1.856523472665     4.714336228337
H     -0.120821238990    -3.087974109666     4.005781649245
H      0.545888363190    -1.754279867678     5.036538598817
N     -1.050621981541    -1.630397721821     2.078035221311
C     -1.588082013461    -0.940589870734     1.170778400025
O     -1.391832844747     0.458083720715     0.960560625947
C     -2.478288772969    -1.617794696890     0.214410493980
H     -2.512236055885    -2.696393809682     0.457867004779
H     -3.483143580664    -1.176240101371     0.307151138747
H     -2.065512301295    -1.472894842273    -0.799005016834
N      0.233166499155     0.361735207243    -1.773980149056
C     -0.587357687182     0.667422643688    -2.823692022785
C     -0.558478737588    -0.097797985108    -3.969157888656
C      0.305239629868    -1.164626229554    -4.078797264421
C      1.135094699574    -1.444595777178    -3.026524023911
C      1.093101221610    -0.646419817340    -1.859346091513
H     -1.273429280139     1.502662773936    -2.745150409463
H     -1.214143583557     0.148023975632    -4.788212699168
H      0.333104161915    -1.766786014726    -4.983077897606
H      1.839450979532    -2.251976421645    -3.056754007212
O      1.937908406811    -0.964053645173    -0.941797609904
H      1.798263506976    -0.704046253736     0.335772100094

