# STO-3G

title

0 1
C      1.364310172926     2.750082857951    -1.002431283370
C      2.649677611774     2.351974447374    -0.586762275743
C      3.742958815213     3.209561037469    -0.834758546630
C      3.554166611432     4.437480650877    -1.498656544912
C      2.263645446796     4.815014751503    -1.917037018204
C      1.158233026074     3.972521448886    -1.669424452296
H     -1.191505040915    -1.087355887961     2.415488064563
H      2.802562703117     1.392438436047    -0.098501165828
H      4.737652043670     2.909941318282    -0.511228797108
H      4.401825028778     5.092170032152    -1.687181932756
H      2.108913456386     5.761650682821    -2.431099586794
H      0.165755232009     4.275671336131    -1.997705024392
C     -0.697195901524     1.886926614945     1.360910779058
H     -1.370470866845     1.069579674516     1.605833593442
H      0.239016148813     1.907180525209     1.910936902107
C     -1.115946356702     2.988560108534     0.617042205802
H     -0.478106087926     3.855007552002     0.551826554923
C     -2.476697998174     3.171032109718     0.083967278827
O     -2.721988598666     4.211062232882    -0.579871178993
O     -3.365667951692     2.085281131664     0.093206511369
C     -4.635266028239     2.302415683268    -0.537703690632
H     -5.247571886440     1.378012504331    -0.455193973067
H     -5.188656097799     3.131297681399    -0.040980274581
H     -4.506637503629     2.536040536649    -1.618949764127
Pd    -0.105518927356     1.439346735968    -0.739332696307
C      1.112123848613    -1.109330855731     1.471183571159
O     -0.203321142046    -1.369720142238     1.187533989417
O      1.933410264798    -0.762685987741     0.601871014110
C      1.475117633484    -1.216960450297     2.975239312241
H      2.536359822926    -0.953541500555     3.019846923719
C      1.315039410920    -2.631035399074     3.503064599888
H      1.677600001696    -2.677666398165     4.551072853389
H      0.242704652446    -2.916537477451     3.484811807562
H      1.899108335415    -3.343764466631     2.885115106966
N      0.771714484714    -0.307314669020     3.895830551464
C     -0.494890004717    -0.119300351896     3.993158631503
O     -1.524622102104    -0.616576903255     3.241110612099
C     -0.924990272434     0.764865025017     5.080701020941
H     -0.582949635103     0.316019891956     6.028426575774
H     -0.444180434603     1.744554224374     4.926416018698
H     -2.025625873837     0.861464762983     5.071181763849
N      0.425493062440     0.305778427477    -2.383812071300
C      1.240030030510     0.392167489924    -3.476095692573
C      1.303329807252    -0.668876546889    -4.360171624268
C      0.559160656806    -1.813678472783    -4.144162181310
C     -0.243734537216    -1.876845370167    -3.032113038532
C     -0.278961946840    -0.774857541391    -2.152765334538
H      1.824311968865     1.288846720362    -3.649109829161
H      1.944801277885    -0.599192091985    -5.223128964949
H      0.611182832863    -2.648005882243    -4.838539896664
H     -0.841938756561    -2.734304276150    -2.800144729022
O     -1.023556928661    -0.835029123663    -1.075648778736
H     -0.526734011676    -1.217859966751     0.187427287847

