# STO-3G

title

0 1
C      1.455688142744     2.813589201016    -1.217648036526
C      2.698533129838     2.165220284385    -1.099009935772
C      3.805045732400     2.691675857097    -1.801214642069
C      3.666413686542     3.840079446979    -2.604464523516
C      2.413312819513     4.474393879098    -2.710241032443
C      1.296055431481     3.962797910965    -2.015492909182
H     -1.256463914719    -0.150212638675     0.950229954541
H      2.810281925620     1.276412421279    -0.482788499461
H      4.770311763127     2.197920152864    -1.712478204669
H      4.525382126458     4.238358072563    -3.139527590361
H      2.298989919192     5.364429226603    -3.325857586513
H      0.330676132717     4.457445869802    -2.104933684715
C      0.529686831721     2.458647375635     1.750808497076
H     -0.028235642518     1.739933955239     2.348141157793
H      1.600151721440     2.295248337006     1.694599872579
C     -0.051828595667     3.631568746755     1.267368896943
H      0.571061756544     4.380527233795     0.803346673626
C     -1.436016631957     4.053134541222     1.547012887406
O     -1.872175636621     5.089873139715     0.983637097520
O     -2.268983819074     3.231281372775     2.322513759752
C     -3.641925028727     3.634776859239     2.416597473948
H     -4.194963646323     2.907174976848     3.049238514350
H     -3.729549471179     4.641748858681     2.883848157388
H     -4.119482056233     3.647274408444     1.410466806453
Pd    -0.138810011749     2.021152308022    -0.336777036927
C      2.602649312245    -1.074217083559     1.967229246163
O      1.988079846446    -0.159140326176     1.127787828360
O      3.818189551587    -1.273508817676     1.894270361566
C      1.620256754263    -1.727563196989     2.999551408842
H      1.226277978758    -0.884738023807     3.597119270665
C      2.322831662692    -2.695297479815     3.917713006160
H      1.606078986609    -3.078138942617     4.673560007514
H      2.701629151531    -3.552206654286     3.322542920326
H      3.169554707987    -2.198757912138     4.435339118646
N      0.515060601420    -2.477952857795     2.376771954719
C     -0.450848241983    -1.895439975149     1.780553634809
O     -0.539978889148    -0.524801562954     1.597374600115
C     -1.531181395204    -2.748600739525     1.268290943291
H     -1.092383131524    -3.431392427338     0.521373905488
H     -1.929669337846    -3.324355955239     2.120529885772
H     -2.327350339044    -2.131846673240     0.815729134958
N     -0.706175867777     0.869385138206    -1.951426829838
C     -0.346244692152     0.676228610383    -3.254084694267
C     -1.074349154552    -0.200770067512    -4.035935474626
C     -2.157747864216    -0.881794144173    -3.513311842852
C     -2.494562844074    -0.674000452466    -2.198882019311
C     -1.725761620833     0.224914573850    -1.428814990796
H      0.501131603042     1.210449489765    -3.668803699399
H     -0.790003415507    -0.351361953420    -5.064417541140
H     -2.730630431733    -1.568873591013    -4.130302836546
H     -3.321300940207    -1.165125107919    -1.728787027778
O     -2.035892710856     0.419207599347    -0.172032472270
H      0.986818659080    -0.131300068629     1.251159636608

