# STO-3G

title

0 1
C      0.811587583000     3.331827219204    -0.026515563289
C      1.843782583222     3.461841576578     0.925124210161
C      2.244186957219     4.747826459662     1.344112854516
C      1.621715800978     5.894907571329     0.814192610224
C      0.593670068078     5.753944008709    -0.137241328778
C      0.182570251243     4.471799845433    -0.561902555401
H     -3.052854373859    -1.592409639559     1.365217685009
H      2.327723460134     2.582683693613     1.346337914458
H      3.036873355825     4.846444782735     2.082904049214
H      1.932086698256     6.884873306467     1.139628012896
H      0.105847873406     6.634490365415    -0.550094494515
H     -0.612287652778     4.379168514664    -1.298350987009
C     -1.822498104282     1.573658454193    -0.083464494187
H     -2.209309912969     2.586360495916    -0.122739912341
H     -2.192115720990     0.884243201655    -0.839001407432
C     -1.118188324981     1.103192998329     1.025937238890
H     -0.872948163503     0.054593285576     1.107084568660
C     -0.890512732337     1.875725884900     2.258418123676
O     -0.094503793214     1.411191897315     3.116665884578
O     -1.375029483721     3.192701239738     2.346186050819
C     -0.956278566157     3.941288361130     3.495139348733
H     -1.401683205289     4.958245453257     3.452451690463
H     -1.296304846286     3.449033606594     4.434367382931
H      0.151672379397     4.051402159612     3.511355442960
Pd     0.347712687582     1.516356947159    -0.667112320495
C     -2.074962539456    -1.798552363573    -0.777401966616
O     -1.775140255474    -1.151032647631    -1.918168292264
O     -3.210862883542    -1.659980689926    -0.259479511325
C     -0.941483209260    -2.678661303507    -0.145672898937
H     -0.024092397939    -2.480110766881    -0.711022997759
C     -1.270207310350    -4.149553881468    -0.301388486290
H     -0.418595107295    -4.762390980434     0.061762614745
H     -2.165489220698    -4.388815066737     0.310209101434
H     -1.467565016897    -4.396329592425    -1.364986893786
N     -0.607135520358    -2.478169085127     1.263408896586
C     -1.317643177379    -2.035021380988     2.235392735759
O     -2.590244804482    -1.533941786353     2.256212190565
C     -0.660622824981    -2.018820835935     3.546275738794
H      0.234216426322    -1.378232956337     3.466767435468
H     -1.356195760271    -1.610401414136     4.299950370316
H     -0.375435433780    -3.054199574581     3.798600328487
N      1.954343091761     1.286328852503    -1.956899960804
C      3.043972760616     1.965792237162    -2.419728114482
C      3.831858036336     1.394460436466    -3.401415014668
C      3.531497731612     0.145668136405    -3.913469536694
C      2.430324149664    -0.517801580434    -3.429840268708
C      1.651097516371     0.097112883910    -2.428783531372
H      3.283645996103     2.944958693340    -2.020585380039
H      4.692137442494     1.931644464958    -3.766498723157
H      4.155279358366    -0.302355491329    -4.682601346039
H      2.146988387407    -1.489751427283    -3.778631092103
O      0.606569870656    -0.516048537246    -1.953219910927
H     -0.771552880701    -1.025205729287    -2.103916948050

