# STO-3G

title

0 1
C      1.541210797142     2.628029247662    -0.284121370514
C      2.822867079994     2.077583273062    -0.484917260257
C      3.884038644390     2.921198523782    -0.877189368558
C      3.668725397753     4.299522442587    -1.070919106924
C      2.385403571030     4.840879990487    -0.863405302000
C      1.317057544547     4.008702032087    -0.465419637071
H     -0.795913827761    -0.957721337055    -0.238856937982
H      2.995689636637     1.013645784830    -0.337856312710
H      4.873603081155     2.495249740822    -1.029689250673
H      4.491315897647     4.943219804059    -1.373805467628
H      2.212871896371     5.906531303807    -1.001457553847
H      0.334112773092     4.444721610355    -0.296125455206
C      0.606333232354     1.174310888682     2.384263247095
H     -0.043406228605     0.378878725831     2.738463815966
H      1.661324794351     0.925217563911     2.331993756099
C      0.156410003223     2.482927446896     2.237601189325
H      0.876826332146     3.257181786904     2.036289035156
C     -1.195878780194     2.968000072954     2.561360424037
O     -2.102061092303     2.146351987697     2.852933005313
O     -1.485817197656     4.324235652892     2.338468344250
C     -2.833293975797     4.731241010378     2.618101779139
H     -2.939950697752     5.819256588394     2.417073066535
H     -3.556008979610     4.186082541753     1.968881564100
H     -3.088443575590     4.549941378058     3.687200881981
Pd     0.082382285401     1.352768648318     0.206895342630
C      1.618816571723    -1.794549472832     1.636460585364
O      1.798604275387    -1.201021117729     0.418160628169
O      2.378871296788    -1.502053208213     2.575202828139
C      0.451807786627    -2.822512432151     1.875685735159
H      0.773089168614    -3.330924704481     2.790861449223
C      0.313689435735    -3.872984792717     0.790089625693
H     -0.320378156827    -4.703415076110     1.164757854618
H     -0.185563026918    -3.441604943685    -0.099789565762
H      1.307475574429    -4.276723700437     0.507379311030
N     -0.889078748620    -2.304594395715     2.161086024016
C     -1.575231745725    -1.364499167314     1.644240954025
O     -1.255127627451    -0.506509594308     0.596564520740
C     -2.926737868504    -1.162734229615     2.178912504003
H     -3.119324085432    -1.895975098906     2.983404831104
H     -2.989029062456    -0.139598149636     2.577174966093
H     -3.643445987174    -1.303071253594     1.352669270861
N     -0.126695539567     0.955611699495    -1.867124874627
C     -0.183281166231     1.948713359464    -2.809022846563
C     -0.133898630722     1.636418352988    -4.152380494665
C     -0.030977878867     0.326569798718    -4.564304952472
C      0.010587006514    -0.653900470943    -3.610094651728
C     -0.048285683709    -0.300951336965    -2.242588902784
H     -0.275600197345     2.982873131596    -2.503043642977
H     -0.174406079768     2.427934134744    -4.882187201861
H      0.008410082530     0.076635853603    -5.621132271739
H      0.073142931717    -1.693089057838    -3.860668134628
O     -0.021187735425    -1.294739623238    -1.390813675255
H      1.131128843662    -1.380483469315    -0.325151745514

