# STO-3G

title

0 1
C      0.245512387377     3.199755962153     0.163223673816
C      1.304806355482     4.075132600724    -0.152365214942
C      1.028121923090     5.429802606285    -0.430025610875
C     -0.297243233180     5.905406741622    -0.402956261966
C     -1.348353539953     5.022380048417    -0.091732714099
C     -1.082830105784     3.665814178810     0.194983898953
H     -1.377864328141     0.290261725516     0.198833892728
H      2.332919070825     3.718957446506    -0.178687027907
H      1.847474288014     6.105446523634    -0.666144761759
H     -0.507916852074     6.950102556917    -0.618202665994
H     -2.374735468633     5.382067792142    -0.063596103709
H     -1.909206347487     3.002476126848     0.439784667653
C     -0.218977089031     1.256666735498     2.533365257584
H     -0.897809816523     2.098130015791     2.627762348606
H     -0.651625262522     0.262746230186     2.512172738208
C      1.160226530658     1.395856808030     2.673465093901
H      1.764053465292     0.497134002038     2.706062646023
C      1.841847437573     2.652123595859     3.027553833205
O      3.096607222367     2.696229601438     2.945704345032
O      1.081536555919     3.812970412104     3.249792764096
C      1.822218324665     5.027790854791     3.428112149075
H      1.113495191926     5.867791685046     3.592747971690
H      2.493205621400     4.956949544692     4.313980906050
H      2.425102833154     5.259509319182     2.521148661312
Pd     0.702682634410     1.289833333757     0.445223025407
C     -0.610365685559    -2.407269672745     2.239006674909
O      0.489602765750    -1.651171305045     1.928735414078
O     -1.082005802019    -2.374884005600     3.385493196659
C     -1.189373677012    -3.353196712541     1.138230903208
H     -2.107989724803    -3.761443149387     1.580503385784
C     -0.253999765968    -4.510025888053     0.860178662595
H     -0.761454501269    -5.246464998170     0.202235804321
H      0.650460685042    -4.137391633240     0.337421053748
H      0.037088982291    -5.012891627305     1.805853725121
N     -1.535360609498    -2.803185741953    -0.171002847116
C     -1.773113935447    -1.587848265709    -0.442647396483
O     -1.811613945757    -0.548830844078     0.489727645802
C     -2.162227667127    -1.273037166890    -1.825295859624
H     -3.068009058933    -1.860396388939    -2.053973329494
H     -2.367016062723    -0.193906666021    -1.917470916969
H     -1.339738117293    -1.578233526004    -2.493947399494
N      0.845507144911     0.850632234935    -1.558778467233
C      0.677518418517     1.463312797614    -2.766526042832
C      0.909315540553     0.749079491944    -3.926353171230
C      1.321494422238    -0.569523249075    -3.877597763281
C      1.492020160846    -1.162326244500    -2.651380266073
C      1.244602540260    -0.409545732543    -1.484571117799
H      0.354598335681     2.497275041879    -2.811668717186
H      0.772058682447     1.232869692466    -4.879758706884
H      1.506155953166    -1.126650597364    -4.792373391347
H      1.808122859281    -2.180345053477    -2.542194074252
O      1.407178808164    -0.957212481656    -0.325831401266
H      0.781300586295    -1.582962661920     0.964865868023

