# STO-3G

title

0 1
C      2.537503959155     2.929531201224    -0.149271913300
C      3.599921173026     3.013007228276     0.771027844047
C      4.430638216136     4.154781488543     0.771355778370
C      4.198278443275     5.205359240237    -0.136775686567
C      3.131434791230     5.113558389030    -1.052589609797
C      2.297924847212     3.975741408532    -1.063273921703
H     -2.184675789954    -0.258671186688     0.849402596241
H      3.795667028724     2.205353040134     1.473077558463
H      5.253963022844     4.217403411158     1.480015275639
H      4.838649952278     6.084168906258    -0.130649016610
H      2.943438205010     5.922106256540    -1.756071534090
H      1.476565114454     3.912244244696    -1.774919805362
C      0.450208936099     1.213705903827     1.743802161000
H     -0.042732553449     0.259014312640     1.592790500558
H      1.204257479856     1.242473406190     2.523491847752
C     -0.025217801471     2.396747084993     1.182595871576
H      0.363283441464     3.342806878065     1.520700755397
C     -1.140358051521     2.480141558877     0.233124272211
O     -0.985730541523     1.856184771580    -0.850462890883
O     -1.941919490026     3.631961477721     0.274382441563
C     -3.007296590224     3.668969313864    -0.685137372147
H     -3.600778990176     4.597133015680    -0.541260262238
H     -2.607528813739     3.670791644159    -1.724643357596
H     -3.687447652749     2.796086836210    -0.551510054197
Pd     1.429750344806     1.286971349421    -0.257248417915
C     -1.241610161965    -2.603784964401     1.243835668763
O     -1.183051933972    -1.464172108001     0.471701850729
O     -0.481255660139    -3.567885707289     1.078114027008
C     -2.343979986333    -2.562096068833     2.336677814117
H     -2.061174503391    -3.365298832712     3.025058992753
C     -3.704085522083    -2.909156214127     1.756121328614
H     -4.450291243737    -2.977961332288     2.574874004611
H     -4.019212731243    -2.112704271144     1.050654209373
H     -3.661631491423    -3.881717269051     1.223189641003
N     -2.502779911905    -1.344029540224     3.143015131680
C     -2.665033011526    -0.137054796400     2.746208040106
O     -2.627782353953     0.390767918032     1.478531302226
C     -2.942139373658     0.851400504618     3.793094236156
H     -3.870113902886     0.543051968434     4.303142598519
H     -2.094875924404     0.834103621196     4.497871268766
H     -3.057726045021     1.853032223559     3.341600120248
N      2.349723870293     0.351613903215    -1.887498359341
C      3.312152570331     0.506395178689    -2.841578820984
C      3.521769747405    -0.503072111845    -3.763985539690
C      2.767733515412    -1.662773318363    -3.728063603963
C      1.804874279405    -1.793675538854    -2.757750773506
C      1.619767929578    -0.739887507040    -1.840686703172
H      3.905939756820     1.412858436047    -2.871171544629
H      4.282613958666    -0.380647204253    -4.517002506817
H      2.935819815636    -2.455864531869    -4.451753673840
H      1.189877810600    -2.665975657710    -2.665939991356
O      0.728903905346    -0.837261346830    -0.897483888137
H     -0.389904961372    -1.375534315928    -0.201441856118

