# STO-3G

title

0 1
C      1.483573968388     2.933519548454    -0.897378584715
C      2.762835296406     2.665617673870    -0.367538249241
C      3.762592285475     3.659144163777    -0.423249769729
C      3.490257946973     4.911279089633    -1.008281264963
C      2.211045969709     5.169732783195    -1.536171948429
C      1.202445404906     4.183435377273    -1.482619354271
H     -1.453180773137    -0.761153034893    -0.300912563114
H      2.985036123751     1.703710745940     0.090387475077
H      4.746425417367     3.451334125294    -0.007191286982
H      4.263577088330     5.674529515361    -1.050814730344
H      1.990527900747     6.134480551877    -1.988397830045
H      0.219141839602     4.398912868826    -1.894651936990
C     -1.561831827529     2.479556360724     0.202458482860
H     -1.657508349257     3.509933993135    -0.123746214654
H     -2.339585008294     1.786426694157    -0.113401238206
C     -0.671124326982     2.078447560850     1.195609061147
H     -0.747543869982     1.077068235633     1.593139218442
C      0.223054110102     2.988393840862     1.931813194895
O      1.124268050367     2.489096628608     2.657600186418
O      0.161701960404     4.370993251350     1.683366406902
C      1.203635839421     5.160669388458     2.272732353532
H      1.053261006797     6.227904814268     2.003055513353
H      1.188525116135     5.074188947216     3.382750203268
H      2.200599931457     4.846857548554     1.887877259989
Pd     0.120690218031     1.493227404591    -0.901511404963
C     -0.391778967912    -1.533143949549     2.943037904297
O      0.017082438195    -0.214662428927     3.142775176556
O      0.390523554995    -2.404627641696     2.545455993787
C     -1.883338397620    -1.693680650705     3.314121485278
H     -2.247431452943    -0.691697584219     3.578527699044
C     -2.057053214461    -2.605976105428     4.505711843043
H     -3.128598238650    -2.636435183928     4.792980154668
H     -1.738592601526    -3.631991851735     4.225831563835
H     -1.457369864940    -2.244948855275     5.366254054633
N     -2.703440753829    -2.266718303897     2.236632680826
C     -2.576165041656    -1.833556693162     1.040725813124
O     -1.736524989458    -0.817091980291     0.670438171996
C     -3.428548701589    -2.460101006609     0.018920476084
H     -3.164571335556    -3.530064753200    -0.017185963467
H     -4.475775338366    -2.334084096832     0.338479486350
H     -3.255926300145    -1.982274353984    -0.961601120081
N      0.992393430024     0.383519919825    -2.403235558172
C      2.086111871959     0.384996048798    -3.219299383425
C      2.240617159125    -0.625398972263    -4.149980775029
C      1.301228348708    -1.634016732684    -4.261400481458
C      0.206104633542    -1.609048269101    -3.434632883544
C      0.081082587721    -0.563908163344    -2.494914449819
H      2.826431663189     1.172207541535    -3.134013805901
H      3.106617198884    -0.625437601552    -4.790924931171
H      1.425905053167    -2.429644257338    -4.990955714060
H     -0.560684624772    -2.355495851087    -3.464256551626
O     -0.960154579031    -0.519818443340    -1.716436033931
H      0.962260512873    -0.087382201004     2.895424094752

