# STO-3G

title

0 1
C      1.028335140250     3.349605298727    -1.569591920742
C      2.168461475684     4.093706363919    -1.204852535750
C      2.507486439768     5.249250728985    -1.939665260256
C      1.715860789984     5.657922242841    -3.030984376581
C      0.579295973527     4.907253917395    -3.387463866445
C      0.230030652240     3.749714133737    -2.658369693428
H     -0.937006119969    -1.003115401620    -0.447391268165
H      2.785743053666     3.792225068559    -0.360658651055
H      3.383675125249     5.827182236852    -1.652498274462
H      1.979424082279     6.551002929798    -3.592575319865
H     -0.037718282394     5.216224971780    -4.228802395625
H     -0.645834696025     3.173952055626    -2.949570683459
C     -1.228330460446     2.088650650503     0.544836530936
H     -1.324996175357     1.109587633521     1.000588740514
H     -2.021974353312     2.367857561982    -0.141435484501
C     -0.315336903454     3.037913237841     0.993873017778
H     -0.393308998754     4.055739041638     0.647856198006
C      0.705946980279     2.799354858631     2.022225637654
O      1.220637712413     3.800240532804     2.584095969943
O      1.433330234862     1.605915737571     1.898817570914
C      2.443490817258     1.387248712614     2.892464263587
H      2.926403026242     0.402495924535     2.712017679307
H      3.229002064631     2.175114382633     2.844657710271
H      1.994541738931     1.368046243446     3.912119552867
Pd     0.606970194267     1.645090128824    -0.640234424643
C     -1.777185092182    -0.114204896750     3.957152803714
O     -0.630561020111     0.266120662447     3.310631256298
O     -2.113319245893     0.302268744444     5.070620316100
C     -2.606444645000    -1.129870162067     3.101155318354
H     -3.665639629017    -0.846675570738     3.199229914202
C     -2.424601362074    -2.543973670627     3.610665751399
H     -3.044357432492    -3.243770968365     3.015192912374
H     -1.359543736164    -2.842623434155     3.508519775339
H     -2.726413982255    -2.610543025261     4.677071862461
N     -2.042727498607    -1.060610559564     1.757994030770
C     -2.611086571259    -1.234101559637     0.620356345163
O     -1.953104253050    -1.118646015264    -0.540010399159
C     -4.051731475867    -1.525899292549     0.491809466180
H     -4.261869969799    -2.470900840199     1.017637926427
H     -4.615519785404    -0.684412687869     0.924920846331
H     -4.302768120505    -1.633562021886    -0.579935429245
N      1.884111732163     0.460503713671    -1.753657168409
C      2.886876068883     0.545980516670    -2.674431732724
C      3.527835041319    -0.607435829041    -3.088693581430
C      3.159664764561    -1.840941233623    -2.582225856783
C      2.148647920306    -1.897914774329    -1.655801134908
C      1.518813701615    -0.699825847361    -1.256906578553
H      3.175221807138     1.511216528985    -3.074856919055
H      4.318590814692    -0.539820440662    -3.817023311248
H      3.660380960085    -2.747368617377    -2.911201791441
H      1.803957882617    -2.814238171917    -1.222762336733
O      0.556217824111    -0.731125606333    -0.373653563645
H     -0.651626510428    -0.227535299915     2.418654597360

