# STO-3G

title

0 1
C      2.580097501361     0.297757337607     3.319431556182
C      2.459895698815     1.265555944854     4.340207417053
C      3.469067468743     1.388482311797     5.320038715208
C      4.599134510874     0.550083411569     5.286638581403
C      4.721586158750    -0.409884204723     4.262268222477
C      3.720428600405    -0.533782991189     3.277338659609
H      0.581386579614     0.926038212461    -0.330647319694
H      1.600025935524     1.931385140844     4.379793944917
H      3.368497938354     2.136907261805     6.104056772762
H      5.374664682339     0.644363097249     6.043461555728
H      5.595599819389    -1.057354706465     4.221908660782
H      3.836029901597    -1.263838605738     2.478607638702
C      0.165618719310    -1.422227546646     3.153246135931
H     -0.199363155977    -2.140004396785     2.426658926346
H      0.961896767742    -1.731078137914     3.820841192370
C     -0.507221033054    -0.217980980086     3.357397022461
H     -0.206309359131     0.439845591164     4.158692565382
C     -1.807056947235     0.119965138878     2.747484337454
O     -2.656503116138    -0.793906841258     2.563948356015
O     -2.204884205114     1.467259373888     2.793588765129
C     -3.481823109616     1.755629440436     2.207343703024
H     -3.680336589682     2.846733351039     2.273673885969
H     -3.495950279928     1.463383082964     1.132343121864
H     -4.296345743298     1.220714491558     2.746820808194
Pd     1.200059394076     0.141972564820     1.895545461620
C     -2.260281209813    -3.587561758601     0.591180195032
O     -1.790492895847    -3.529530135324     1.893369023793
O     -3.405263173079    -3.956736455567     0.300772892396
C     -1.198907103728    -3.102681788037    -0.417083749258
H     -1.686438351820    -3.134266692425    -1.404825772111
C      0.023198639035    -3.998128144978    -0.446922009092
H      0.734973436616    -3.630397457895    -1.214764305052
H      0.532991527509    -3.961182467368     0.538252908619
H     -0.265280922505    -5.042844764284    -0.682512942826
N     -0.761088085287    -1.798733343993     0.037889191426
C     -0.473909818694    -0.775956063869    -0.634962532195
O     -0.151191820947     0.387340271919     0.064124777932
C     -0.494181970165    -0.709882396628    -2.110904535904
H      0.255403163824    -1.430543794639    -2.480979339005
H     -1.509872817498    -0.959291370279    -2.455674260660
H     -0.222317885154     0.309358433232    -2.435311075842
N      2.510478431242     0.987439684794     0.522807551165
C      3.176470411604     2.157622633238     0.755621917732
C      4.293422752357     2.479535089922     0.014627459703
C      4.758102134573     1.634603312686    -0.968118390793
C      4.100367468807     0.455159291095    -1.190080408020
C      2.963715180473     0.115394467579    -0.412643203407
H      2.814786625272     2.839940638464     1.515821459501
H      4.803689687766     3.408149634241     0.207807715556
H      5.636380937938     1.895669100916    -1.552118459128
H      4.424251304026    -0.249427422894    -1.927927454894
O      2.417047373256    -1.008258058402    -0.637674704665
H     -2.525070227576    -3.553606716560     2.545071394089

