# STO-3G

title

0 1
C      0.135391173895     2.445735849844    -1.987699956034
C     -0.835466254359     3.389966822068    -1.549400688218
C     -2.103852011534     3.419536232944    -2.137806478142
C     -2.425888607051     2.517973086236    -3.183146862603
C     -1.477020846784     1.592913915438    -3.640416314508
C     -0.188159376607     1.556496812336    -3.051750834450
H      1.151074026165     1.854158063117     0.645962335574
H     -0.580075906000     4.071812242633    -0.744772668425
H     -2.843231185059     4.139551191339    -1.797117326908
H     -3.412878166702     2.552415825421    -3.638556683583
H     -1.717407960580     0.915104102082    -4.454754117389
H      0.580601876168     0.918527740037    -3.476330740924
C      1.853351069575    -0.864871909309     2.019541899148
H      2.905785013760    -0.601015598764     2.116636141436
H      1.591607563192    -1.616176758422     1.281915408088
C      0.876956081797    -0.246497135798     2.717099983507
H     -0.152668454708    -0.519517098358     2.534133818686
C      1.083114150525     0.831816165578     3.694643088449
O      0.077413567036     1.279160707408     4.314026083255
O      2.390168180408     1.196150317587     4.073424154269
C      2.489095469767     2.291717205196     4.992476635990
H      3.560047766049     2.499018738782     5.201463695700
H      2.034896153532     3.210367988435     4.556373230204
H      1.985612467134     2.047413195433     5.955001902740
Pd    -0.094213934892     0.296598237221    -0.821220251562
C     -1.828510436052    -1.672444923098     0.343304121035
O     -0.523617469787    -1.524974958360    -0.015305226410
O     -2.324505211988    -2.767718903263     0.661145518964
C     -2.667211996823    -0.334227351849     0.335714214590
H     -3.286235863828    -0.331418107155     1.243652836374
C     -3.571441544874    -0.244791063153    -0.870931564143
H     -4.138576800663     0.708240008038    -0.836936337028
H     -2.961049727500    -0.260330107464    -1.796097201385
H     -4.283134393814    -1.096498608113    -0.880422662143
N     -1.711486868985     0.767815075318     0.253007618270
C     -1.355839964138     1.654244015950     1.178003862626
O     -0.200839697955     2.238471019522     1.185931635881
C     -2.325220364808     2.027555651946     2.226391330249
H     -3.264182371329     2.337047556112     1.739188928088
H     -2.467145897571     1.161567650647     2.893189123923
H     -1.901763673071     2.862249725321     2.815721488717
N      1.934823517192    -0.001743362451    -1.143444699361
C      2.531702766990    -0.984357533193    -1.882999634982
C      3.907819723876    -1.042325697127    -1.961030286110
C      4.687450918523    -0.134226950570    -1.276595250004
C      4.061984968258     0.822608817401    -0.520734955410
C      2.652873955450     0.844636209602    -0.448774141078
H      1.922167507344    -1.696592883157    -2.427111530174
H      4.373654198386    -1.815117359871    -2.550599121421
H      5.772076260446    -0.183815915190    -1.324646676087
H      4.607114190159     1.533459652155     0.068674026214
O      2.167896737656     1.771288329784     0.352516651933
H      1.153529773843     2.526955480295    -1.619025436040

