# STO-3G

title

0 1
C      1.220513457027     2.894751543690    -0.622186779113
C      2.531943751879     2.734913861662    -1.122725351297
C      3.247961748004     3.846114126754    -1.612725900049
C      2.656006415229     5.124130831808    -1.623933253653
C      1.341284588378     5.282071258402    -1.148251364760
C      0.622664408713     4.173858053995    -0.649431646152
H     -0.173549412686    -1.178224372808    -0.140601874867
H      2.991497666144     1.748815592782    -1.153872440054
H      4.259151725562     3.708653692435    -1.991015349852
H      3.208295629744     5.980164456401    -2.004297120038
H      0.868918712050     6.262418921425    -1.164377399516
H     -0.402206413000     4.322671252281    -0.314305188729
C      1.174389414843     1.804181356650     2.111579872427
H      1.339066455473     0.932750176773     2.734620250907
H      2.064798306370     2.293747046453     1.733345504686
C     -0.068283487433     2.422787480425     2.053985586433
H     -0.166196102005     3.377899724951     1.568123949247
C     -1.220881013617     2.045784241256     2.888837509359
O     -2.326268483498     2.602258435320     2.658061573696
O     -1.013270648582     1.258320597148     4.033145316846
C     -2.165952360301     1.031051666521     4.856680044310
H     -1.886850018893     0.369392309170     5.704272155718
H     -2.552847107416     1.989009058191     5.270467447069
H     -2.974158626082     0.524169780333     4.282034067421
Pd     0.303812097802     1.236412658654     0.064140775757
C      1.849992931936    -1.215807655984     1.846087883574
O      2.624918277932    -1.247338357365     2.812832317162
O      2.275371676860    -0.841156853919     0.586807724849
C      0.362868291267    -1.569221502043     1.907582522248
H      0.008612163576    -1.301392789267     2.907868343662
C      0.164658049938    -3.065942266089     1.727910430842
H     -0.900495391829    -3.327979633386     1.894519359654
H      0.438695461021    -3.351715689006     0.689421147699
H      0.787330564050    -3.632543762150     2.451006585492
N     -0.450058195809    -0.864384324328     0.884601818401
C     -1.793971580650    -0.723990806248     1.200827739522
O     -2.287080340549    -0.946207322244     2.326627626191
C     -2.687475717357    -0.228541169404     0.135597240915
H     -3.474020551264    -0.988359284367    -0.007221243276
H     -3.133471956458     0.718932351158     0.481864354766
H     -2.138838441076    -0.089231314045    -0.806824599568
N     -0.000710118595     0.692397062477    -1.969001756473
C     -0.193673489557     1.632791609119    -2.949336220170
C     -0.156384944273     1.278550061884    -4.281045183973
C      0.062987516357    -0.024967996441    -4.656717641371
C      0.213577360679    -0.966165168918    -3.678704049144
C      0.156447585996    -0.591245830831    -2.313348659463
H     -0.393097378611     2.663194557140    -2.689762565988
H     -0.301187765040     2.035833102090    -5.033595959815
H      0.093566955666    -0.304472614558    -5.706351530171
H      0.349238271526    -2.004989171697    -3.901443268299
O      0.234899671772    -1.556087932450    -1.472457349289
H      3.233389236192    -0.625015495525     0.590560599694

