# STO-3G

title

0 1
C     -1.688673793289    -1.635079540880     0.270164842702
C     -1.711223005634    -2.768925611373    -0.571080476073
C     -2.194476066607    -4.000953526356    -0.081950261573
C     -2.671228464793    -4.105082607697     1.238898180652
C     -2.649189161104    -2.973535070926     2.077519585854
C     -2.153422703536    -1.742502745238     1.599997418935
H      1.078723106250    -0.984274511112    -0.157031597427
H     -1.351860428625    -2.706149334325    -1.594975115179
H     -2.197224983435    -4.871771968538    -0.734917899487
H     -3.048945613722    -5.055044274592     1.610680154935
H     -3.007822266177    -3.047129378019     3.102487625996
H     -2.113912934887    -0.884267321622     2.266308496301
C      0.331299368931     1.994284371592    -1.314110815001
H      1.319588237517     1.900477582273    -0.870955053732
H      0.244983644048     1.650159714885    -2.338004366877
C     -0.708142300477     2.611486715789    -0.665072107624
H     -1.651929848489     2.738971538082    -1.174682520707
C     -0.604881173816     3.253593339794     0.658041926829
O      0.520882664090     3.383881920230     1.212924819809
O     -1.773983053034     3.770161675024     1.242734708875
C     -1.613445262712     4.366871366314     2.537366815898
H     -2.598249891354     4.732706410719     2.899817954896
H     -1.227447667792     3.621980997283     3.270174948566
H     -0.916715997036     5.234644489675     2.489910712890
Pd    -1.019437590580     0.161238987651    -0.330940613755
C      2.834099880089    -0.610837250415    -1.669090483709
O      1.564448699711    -0.916837573282    -1.939745047855
O      3.731459138434    -0.254736026978    -2.454221529739
C      3.102853301267    -0.746357446393    -0.112289049504
H      3.791674098244     0.051232548350     0.182528601366
C      3.692180415359    -2.087938703315     0.253206951937
H      3.865320760416    -2.131261355174     1.347637531586
H      2.977003519448    -2.889836451547    -0.026657458252
H      4.652865488327    -2.242400374642    -0.280184127729
N      1.781409489374    -0.636297335217     0.518839708657
C      1.283115751062     0.155121968979     1.457620515295
O      0.028686183386     0.445399331277     1.499218912216
C      2.175227069306     0.700687183595     2.490021113064
H      1.565606735265     1.268634875435     3.215233060416
H      2.679624802156    -0.145916329556     2.984267420996
H      2.898409700593     1.378970571688     2.007078971910
N     -2.014091696904    -0.064686629633    -2.094966926580
C     -3.380096790880    -0.045476627755    -2.003153023396
C     -4.151491903691    -0.125476311799    -3.141184756201
C     -3.562599374323    -0.238318863223    -4.379226184489
C     -2.196250722111    -0.278125182945    -4.449210929704
C     -1.421173069474    -0.209586527535    -3.267573574395
H     -3.853990340395     0.052826872716    -1.033199256198
H     -5.225683708521    -0.102777194625    -3.056642039459
H     -4.167744249960    -0.301976775504    -5.279744664964
H     -1.680795087812    -0.380869657829    -5.383626815623
O     -0.146153968818    -0.286341679039    -3.466295551330
H      0.780815195194    -0.586495559350    -2.732759054064

