# STO-3G

title

0 1
C      4.504574740405    -0.947730843905     0.080275266580
C      3.476896886804    -1.599086145226     0.812846812074
C      3.439637942023    -1.487470021766     2.229725266051
C      4.451692524481    -0.767642663294     2.905719269855
C      5.485895155053    -0.160519400016     2.171008483461
C      5.503054925151    -0.234966083776     0.757380732469
H      4.499076861808    -0.993483961826    -1.004255788973
H      2.811974426290    -2.304185717572     0.322816047775
H      2.660327238627    -2.010433535699     2.776126280130
H      4.439792550123    -0.704086817943     3.990533147891
H      6.275298654096     0.380300153505     2.688161611828
H      6.287955868509     0.266973168547     0.196923031444
C      1.699849713614    -1.243465746031    -2.427899295092
H      0.821539572691    -1.760310087966    -2.053896150481
H      2.642390093581    -1.525208199286    -1.969020227908
C      1.666339046204    -0.283950663953    -3.380238277296
H      2.579697478215     0.220022031887    -3.665371134331
C      0.449267492556     0.212538462958    -4.043434649070
O     -0.686289925104    -0.209793507346    -3.685659311452
O      0.582050306773     1.154337408430    -5.079186224191
C     -0.641663064481     1.642222494791    -5.645486026499
H     -0.407942292521     2.375284054096    -6.447270364440
H     -1.229459162061     0.809987355055    -6.094921929534
H     -1.254987850032     2.157238059626    -4.872128466523
Pd     1.582620075298    -0.108372328645     0.628527900610
C     -0.692845843292    -1.615483362085     1.266194734739
O     -1.351075558291    -2.351146864713     2.021792054726
O      0.608469118258    -1.823437658831     0.976075072676
C     -1.347456854067    -0.405308837405     0.526354441416
H     -2.009738314024     0.087307016757     1.251270123149
C     -2.178398925468    -0.943606380030    -0.632339643406
H     -2.856015969090    -0.175074583210    -1.045036829255
H     -1.508780034006    -1.305017486347    -1.439101035663
H     -2.813856729289    -1.788707746147    -0.291423650409
N     -0.277673551766     0.504588301870     0.021714755028
C     -0.406159294984     1.502055589146    -0.844767149745
O      0.541568417003     1.992740449104    -1.561643483114
C     -1.698355245760     2.206844781464    -1.000574610215
H     -1.491691030688     3.291097959340    -0.969381023067
H     -2.106542029773     1.934722013349    -1.989106556115
H     -2.394581957720     1.957969181807    -0.184705507946
N      2.654187766582     1.662884237877     0.693270252639
C      2.966525756098     2.056311978501     1.966498822676
C      3.949554463983     3.002225791821     2.177335018417
C      4.627082399539     3.555860601028     1.113029121627
C      4.278973288966     3.167916810309    -0.153674945717
C      3.249064929311     2.218626400478    -0.332287894281
H      2.455420985507     1.606871829985     2.809804237345
H      4.197153095621     3.293976867905     3.184261375858
H      5.408403654254     4.293711297562     1.273791139734
H      4.742059798444     3.581202536988    -1.026602022487
O      2.923796315262     1.953765075638    -1.569331665689
H      1.819777025518     1.785445984349    -1.621128364859

