# STO-3G

title

0 1
C      0.737038962987     2.784130556188    -1.085407172432
C      1.732635411806     3.693377624583    -1.507719490440
C      1.489780608547     4.565524854124    -2.590517366007
C      0.250658914513     4.541287867362    -3.258840668666
C     -0.742302191065     3.633418975844    -2.841958018750
C     -0.500814327552     2.755191346254    -1.765089278229
H     -0.002247431225    -1.553359211498     4.120510067749
H      2.696091987453     3.734971045788    -1.002046819730
H      2.264184448831     5.263191310589    -2.904347050649
H      0.061149937924     5.217558942716    -4.089285313346
H     -1.702166845816     3.601805570176    -3.354125667610
H     -1.274977512222     2.049927699772    -1.469837291742
C      0.976127647191     2.384985138885     2.428913550385
H      0.281684008424     1.687608460383     2.880838395374
H      2.012317604906     2.259002750585     2.721821473834
C      0.559388751498     3.445964905839     1.647957271090
H      1.275935357858     4.173841954231     1.301866917335
C     -0.850628000626     3.803322995746     1.413098947847
O     -1.121843521958     4.933542114840     0.931470983068
O     -1.858191279874     2.864046846411     1.693150657425
C     -3.186664164557     3.237853507328     1.302099271342
H     -3.890429478439     2.414629905824     1.550844547143
H     -3.515356036950     4.155172263491     1.841396051397
H     -3.239538217020     3.416334173427     0.203681893712
Pd     1.150990063611     1.448478677597     0.374214389539
C      1.856905178107    -1.347110329967     1.519657938383
O      1.728984950321    -0.065864360116     1.778897010475
O      2.699346825855    -1.900462380528     0.764950867319
C      0.859544904287    -2.262317042239     2.336186426204
H      1.480099916234    -2.811129972234     3.056204498391
C      0.141587500998    -3.283055666382     1.476479778532
H     -0.493194485840    -3.927115780470     2.119207054063
H     -0.504169642864    -2.776472409690     0.734470421737
H      0.877882434459    -3.918878679898     0.942498685362
N     -0.136359069550    -1.510299075736     3.118047125462
C     -1.052428104532    -0.642443775667     2.655508843210
O     -1.264714907650    -0.333030168926     1.452983866999
C     -1.921026430921    -0.030541936485     3.684372758270
H     -2.626448741791     0.663363813712     3.194362262769
H     -2.467879140109    -0.845802099066     4.186862430974
H     -1.287159985709     0.513125057494     4.405358645407
N      1.376802632092     0.114884975246    -1.173943816610
C      2.580716210385     0.085530036326    -1.824610051152
C      2.748477938974    -0.724342107717    -2.928926216652
C      1.717725484860    -1.524963434827    -3.368265688295
C      0.532992178025    -1.495879412984    -2.680305889535
C      0.404535966650    -0.658018354492    -1.552438941520
H      3.392581004321     0.718012407418    -1.485564714210
H      3.696497214043    -0.735750255994    -3.439977848255
H      1.843953604915    -2.170182236284    -4.233358634404
H     -0.301268338397    -2.106766963755    -2.959466465815
O     -0.764539898950    -0.750598990728    -0.950843211678
H     -0.875307871083    -0.454401442118     0.028770948493

