# STO-3G

title

0 1
C     -0.332699775249     3.602840765352     0.184640842532
C      0.097166613220     4.830052395168    -0.391395216564
C     -0.423428299730     5.260984455149    -1.617005104549
C     -1.362128235718     4.464429459384    -2.321927817092
C     -1.800946865182     3.255528380430    -1.772270162664
C     -1.302012485296     2.831961671155    -0.510343190329
H     -3.788397897792    -0.151155279404     0.436839875525
H      0.824803597876     5.441721533910     0.138281773408
H     -0.101749621103     6.211224700818    -2.037604275819
H     -1.744378307494     4.797876630005    -3.283261918273
H     -2.519092486628     2.622214468199    -2.285836598508
H     -1.772167944842     1.989758449749    -0.013323485344
C      0.275429390230     3.065737542238     1.478133743043
H      0.487007378338     3.873367193339     2.189242674228
H     -0.407517773454     2.355832361814     1.955405003851
C      1.565785120172     2.360739636178     1.008588028790
H      2.325925968051     3.081364747224     0.717209622412
C      2.125803317699     1.250821586194     1.802972415032
O      3.357815413006     1.260630306131     2.059884215809
O      1.375003925450     0.069589722336     1.881667811922
C      2.012994360060    -1.042636121044     2.523136307906
H      1.315813205371    -1.908586213044     2.531751757017
H      2.933646786058    -1.344377820806     1.973219687875
H      2.271918138149    -0.795957914046     3.577550540653
Pd     0.771547376949     1.504772672896    -0.712943591573
C     -1.806853802124    -0.246766233769    -1.220287751798
O     -0.604494308470    -0.164790592667    -1.793708903917
O     -2.880089548986     0.156451425985    -1.730092329888
C     -1.817583106490    -0.820118629872     0.239335657359
H     -0.881927537892    -0.572347535967     0.745891181826
C     -2.012475879284    -2.319292873838     0.268601696227
H     -2.004499759335    -2.670619350697     1.321075494623
H     -2.994765847782    -2.570336047951    -0.182880220846
H     -1.200326525331    -2.826796008383    -0.291656867686
N     -2.923353772096    -0.200821897630     0.965854451563
C     -2.746980237104     0.553075980039     2.077859739326
O     -1.646704981332     0.776460048092     2.645591369228
C     -3.977725397794     1.160691767997     2.622892246654
H     -4.678597521247     0.343333871399     2.862596968749
H     -3.719759361573     1.732242460573     3.530925251340
H     -4.404113166282     1.826216412788     1.851891352001
N      2.480036259132     0.380105312514    -1.031001317666
C      3.715207754073     0.972318305439    -1.078362708942
C      4.851792812707     0.198118032231    -1.169115579676
C      4.764619557344    -1.174909913749    -1.210660199628
C      3.521505085525    -1.748206373308    -1.185308810860
C      2.374316487485    -0.929016981470    -1.110515147467
H      3.800255278070     2.051508122069    -1.034327862925
H      5.818144825527     0.675401815903    -1.188540488817
H      5.659864951930    -1.788051457906    -1.273216719120
H      3.384788214452    -2.809915160497    -1.239472252979
O      1.241336013602    -1.572074365630    -1.137012735147
H      0.331371154624    -0.951252702188    -1.382390423031

