# STO-3G

title

0 1
C      0.160210737965     3.319923693624    -0.362864333014
C      1.319936898059     3.963552437989    -0.855291549312
C      1.431164120825     4.313576474947    -2.213821304245
C      0.378083534477     4.026889724085    -3.106779821061
C     -0.783100639181     3.391417707565    -2.627008249624
C     -0.888966762677     3.044810713272    -1.265991086179
H      1.864898712825    -1.028666565637     1.346368277183
H      2.133192383997     4.204476945315    -0.170650295823
H      2.326150590511     4.819346091193    -2.571656954044
H      0.459145580125     4.302915356770    -4.155937212931
H     -1.600920017276     3.159131057870    -3.304714941984
H     -1.787508035001     2.551106534111    -0.904646483894
C      0.057656898356     2.922104259307     1.101071378101
H      0.309506173527     3.787673707040     1.734956143943
H     -0.964338005203     2.626831135362     1.358258337616
C      1.010646601189     1.754677266635     1.448495131293
H      1.987382389546     1.887350002043     0.984600947044
C      1.189084413618     1.370856944521     2.866390476829
O      0.199038232652     1.366180004637     3.643669816618
O      2.469363070832     1.011031559370     3.313665545659
C      2.563075444303     0.569340075132     4.674685816057
H      3.619517021667     0.309081422643     4.902353236022
H      2.242413472252     1.372615469558     5.376064891885
H      1.942075159137    -0.340142267563     4.838413250303
Pd     0.154504269291     0.201883853300     0.390697697669
C     -2.181094606164    -0.718487020931    -1.268781838996
O     -1.057814383377    -1.437621558983    -0.747298352098
O     -2.035509512428    -0.072194154082    -2.301187149433
C     -3.453776270322    -0.925846198223    -0.407315976878
H     -3.991043682267    -1.765567333780    -0.873957933173
C     -4.365756027254     0.284591856299    -0.438355831479
H     -5.287709318115     0.067391456498     0.140606039646
H     -3.857024047599     1.157661228614     0.019186853700
H     -4.646931908680     0.531118464465    -1.483740837808
N     -3.204769620907    -1.302634856696     0.994266066009
C     -2.385207008435    -0.613776504432     1.741842881485
O     -1.640043617835     0.438611631684     1.385746127183
C     -2.311145366941    -1.050602017932     3.142746256546
H     -1.953743684721    -2.093414975619     3.166078269280
H     -1.627576841925    -0.385435853794     3.698440945017
H     -3.326931796036    -0.987426376089     3.572009337343
N      1.840690780468     0.031831420074    -0.743650154055
C      1.927855443536     0.599954561206    -1.986398693590
C      3.085123566438     0.446661898564    -2.727018842823
C      4.146928874248    -0.280403421177    -2.226285069684
C      4.021584681307    -0.845164686769    -0.982202067826
C      2.823597733399    -0.658722544559    -0.267253350407
H      1.093329012699     1.162393348974    -2.385544032497
H      3.149836748546     0.899534874270    -3.702405316993
H      5.058289584936    -0.404675471780    -2.804704811759
H      4.798873016029    -1.424590057196    -0.527567310577
O      2.759754003777    -1.232384927182     0.936855231953
H     -1.355351270644    -1.985457197789     0.022725216609

