# STO-3G

title

0 1
C      2.165842996416     1.764847924550     0.655004416923
C      0.906954007755     2.255919419895     1.095961227032
C      0.394608710854     1.858643404597     2.360948886909
C      1.134663242754     0.992296159788     3.171638427542
C      2.401625700155     0.523148950415     2.743864296427
C      2.912548707526     0.906434268153     1.501262578764
H      2.609445433385     2.125514042957    -0.267261739279
H      0.400788346939     3.043303669156     0.545948194652
H     -0.568388390822     2.239687437781     2.688687560424
H      0.739396937051     0.678126762946     4.133806771156
H      2.972315104260    -0.145899826249     3.381571782911
H      3.885286415252     0.549540283826     1.177623583617
C      0.650337335360     1.881988163714    -2.296989181064
H      1.260132158073     2.686568229573    -1.892864254997
H      1.161703827670     1.093649594914    -2.845007842637
C     -0.725278212124     1.982023487337    -2.404279930102
H     -1.263791078992     1.236913666702    -2.960894475368
C     -1.536216218436     3.128885640578    -1.959933998080
O     -0.995396987821     4.029288480544    -1.261367303792
O     -2.808609313025     3.318108559025    -2.527193959260
C     -3.547095994530     4.448521233173    -2.044363580096
H     -4.536060124970     4.483288956193    -2.549493694634
H     -3.720868845800     4.365143473284    -0.947552633779
H     -3.009032580273     5.398010513777    -2.265624046366
Pd     0.278781979266     0.498769725556    -0.532600949219
C      0.609749635054    -2.286010123499    -0.008827324988
O      0.732281808642    -1.094928184728     0.624099800198
O      1.168646169157    -3.325028979143     0.393383900170
C     -0.275910982810    -2.241354302588    -1.294711408023
H     -0.998472925901    -3.064188515992    -1.201580069937
C      0.534774210960    -2.460089747804    -2.551246790093
H     -0.139423786973    -2.462709992663    -3.432008700458
H      1.269574781122    -1.639385843685    -2.669749687874
H      1.070895565878    -3.430755328586    -2.499239564885
N     -0.894390458575    -0.912169814202    -1.385935575967
C     -2.207649771371    -0.604365201584    -1.372772465250
O     -2.650552599481     0.563644746129    -1.152517251555
C     -3.180932418027    -1.664610130654    -1.727237118440
H     -4.180291585104    -1.200941386220    -1.818354054687
H     -2.882126673606    -2.100486923284    -2.695007161174
H     -3.200979603382    -2.416447230371    -0.920446922241
N      3.502844379642    -0.536508407230    -1.780064068100
C      3.949310728182    -1.643696588174    -1.104898562020
C      5.206434314076    -1.636360190948    -0.525135918798
C      6.014931566443    -0.521373872993    -0.615462924015
C      5.534744584490     0.573519445832    -1.288350078857
C      4.247881258450     0.501401425014    -1.857674672893
H      3.325921891455    -2.526303471964    -1.037809982630
H      5.546286251950    -2.511021271125     0.005703947468
H      7.001307766751    -0.509127532446    -0.159367564786
H      6.099905507861     1.477968710717    -1.393636258101
O      3.858038823219     1.644076532546    -2.485323738382
H      2.970043520903     1.525214675763    -2.877345743520

