# STO-3G

title

0 1
C      1.083366644405     1.715940508288     1.128920645702
C     -0.102822142125     1.541956481427     1.895077992414
C     -0.049295470646     0.861545352433     3.139844786141
C      1.172697329078     0.371280107910     3.614730017498
C      2.359386102307     0.558714969039     2.863717072751
C      2.315656981246     1.224205933854     1.636234685630
H      1.083147434666     2.307134538513     0.219987726196
H     -1.033750782027     2.016207919528     1.592832860347
H     -0.959857832371     0.727753911749     3.717099404724
H      1.212472026547    -0.159117038903     4.562563603289
H      3.302667027960     0.171607042492     3.238439939526
H      3.223499655692     1.364647084620     1.056945768220
C     -1.445915986629     1.376138067396    -1.454318643640
H     -1.464189089935     0.826392475467    -2.393214647370
H     -2.022689822235     0.873360207574    -0.649352575907
C     -1.052555873043     2.677133728213    -1.385385172625
H     -1.062899939766     3.201011007485    -0.439233498441
C     -0.589122201013     3.476290444350    -2.534110061849
O     -0.598075126934     2.976164643866    -3.691758744689
O     -0.183715949700     4.803622774218    -2.311088583437
C      0.286019476073     5.514927858912    -3.464793798729
H      0.582229144040     6.544052957275    -3.168194358393
H      1.175761861111     5.009239064819    -3.904744534230
H     -0.514245617358     5.591727447785    -4.235651218391
Pd    -0.204823371931    -0.093372265676     0.017354628485
C      1.196548818037    -2.557742367955    -0.130843001626
O      1.053346404459    -1.483872713551     0.690772187938
O      2.148701823746    -3.348897160086    -0.010220413605
C      0.068200803213    -2.726605700243    -1.193055146775
H     -0.331985174773    -3.740111741327    -1.045401566555
C      0.600474173752    -2.615304852379    -2.604626008752
H     -0.212787520233    -2.804050552242    -3.333194388165
H      1.000054669577    -1.597116008615    -2.776882584687
H      1.412124984193    -3.355059955754    -2.767721760959
N     -0.933383716694    -1.670041595994    -0.990000788137
C     -2.277608477477    -1.769482514103    -0.980660582112
O     -3.053410535895    -0.851615450497    -0.566717046170
C     -2.894047770888    -2.999052577822    -1.532756950283
H     -3.991159870433    -2.863866724095    -1.544227546367
H     -2.528525518749    -3.141514275330    -2.562520117309
H     -2.639915620030    -3.852581809313    -0.882322338796
N      2.957673300551    -0.328844715127    -1.654255458199
C      4.137470833813    -0.957519671046    -1.356523734771
C      5.304447832513    -0.215972358845    -1.264455330024
C      5.285012628681     1.150489225153    -1.465617579791
C      4.082523721278     1.748680441690    -1.749067276650
C      2.933139524067     0.936829961787    -1.826845849575
H      4.157615677115    -2.030084801361    -1.204754588518
H      6.229694519835    -0.716746708042    -1.031729935841
H      6.196962035125     1.737017221144    -1.393749642268
H      3.984597753278     2.803610185624    -1.906233020407
O      1.778448676408     1.617183722922    -2.063196389121
H      1.021689987566     0.986486866903    -2.038334899400

