# STO-3G

title

0 1
C      0.148887228333    -2.160041311865     1.255096904158
C      0.844336890577    -2.982597955844     0.335248213062
C      0.135216003308    -3.906796253476    -0.450386549464
C     -1.271800421198    -4.015394760935    -0.332400926246
C     -1.961930276767    -3.197540098522     0.572845609179
C     -1.260496539801    -2.262381870303     1.378874502501
H      0.702495186848    -1.496598614983     1.910515852147
H      1.927600827138    -2.923886936028     0.271853551842
H      0.671052295364    -4.554532453579    -1.140434403649
H     -1.813167888085    -4.739244341759    -0.936540483428
H     -3.039557814376    -3.287466086078     0.684051541443
H     -1.814476732157    -1.756040114395     2.177358059386
C     -0.869460790312     0.638836929324    -1.521310227625
H     -1.449692601272     1.552809847115    -1.596796632580
H      0.208898223578     0.786515953376    -1.496896007121
C     -1.465373762605    -0.604698005064    -1.508726615710
H     -0.855542704453    -1.496241257955    -1.515183625212
C     -2.912756452683    -0.828653932757    -1.681515116680
O     -3.716041898313     0.121603066818    -1.489655421165
O     -3.371356685821    -2.125611480962    -1.969080477623
C     -4.795163815296    -2.284751450937    -2.043164848815
H     -5.036420656260    -3.344301980004    -2.275420072136
H     -5.273400182670    -2.024369966214    -1.071279253826
H     -5.223884782303    -1.645619975128    -2.848344975971
Pd    -1.113586950951     0.235062237233     0.783926571655
C     -0.169210974610     2.813936863711     1.620050983322
O     -0.809587649467     2.231513504672     0.576824055606
O      0.329966583581     3.951798739013     1.527483604740
C     -0.138040779882     1.958154025402     2.920214989653
H     -0.469605674956     2.633360951826     3.720864422442
C      1.254980396373     1.474786871285     3.257282790246
H      1.243357129170     0.957042299609     4.237885917995
H      1.599426905446     0.759596829228     2.487411359824
H      1.960040230652     2.331513575481     3.304475265363
N     -0.998965374132     0.780718454486     2.734385503772
C     -1.987037778808     0.349026777808     3.544870656074
O     -2.810484701250    -0.564023044408     3.230255829720
C     -2.089268094863     0.926518894599     4.907099591418
H     -1.115392352979     0.813142235108     5.411557078825
H     -2.394777114139     1.981689614561     4.818573965162
H     -2.864176972205     0.371402952741     5.468097938641
N      2.078891029487     1.645701619413    -0.680139055714
C      2.322788477928     2.993461840262    -0.713780392718
C      3.421040673454     3.507356407860    -0.044043605534
C      4.261420912635     2.675702607980     0.668499423206
C      3.975877742717     1.333200437655     0.696722162812
C      2.846778916132     0.874715560906    -0.009894982043
H      1.659215782093     3.649747870316    -1.265045507880
H      3.599760566826     4.569811918946    -0.066980838046
H      5.119292072620     3.075981194593     1.202008242275
H      4.574199838131     0.627802086229     1.236718447727
O      2.603434735721    -0.457047507728     0.122917131338
H      1.748875099629    -0.683158790131    -0.302717687560

