# STO-3G

title

0 1
C      0.641534577980    -1.760948420820     1.191332572081
C     -0.579785202133    -2.490470556583     1.244977742626
C     -1.137015228706    -2.843427579774     2.506462616396
C     -0.483000289001    -2.466952013192     3.687615835467
C      0.750531093554    -1.756030693033     3.634166800084
C      1.315652806329    -1.415571270669     2.399884787421
H      1.071109872310    -1.535970887675     0.223730777826
H     -1.035915586994    -2.790268519697     0.307433725284
H     -2.070368312528    -3.397532345713     2.546151302847
H     -0.911443848127    -2.725529601316     4.652592085292
H      1.254682334597    -1.483867050773     4.557955981907
H      2.259713617991    -0.879239452679     2.355200999889
C      2.221361272184     1.473947539009    -0.239294190718
H      2.721215765670     1.932516714041     0.611806750611
H      1.352613184278     1.994785816554    -0.627036186955
C      2.638755797648     0.320162709616    -0.809444990865
H      2.090583011372    -0.083647332962    -1.651511154458
C      3.797045297827    -0.473275285281    -0.368061448164
O      4.409289270081    -0.156932897087     0.688451349239
O      4.106895990168    -1.653823696213    -1.065140476900
C      5.185428421086    -2.433645447775    -0.530059556879
H      5.338721648647    -3.333606720409    -1.163735753710
H      6.132484316542    -1.847671222128    -0.522617952298
H      4.951772169578    -2.773718164188     0.504524690488
Pd    -1.085913898082    -0.112624085066     1.130293865629
C     -0.777134716375     3.609683141362     0.430734629965
O     -0.377311387844     4.774553040630     0.568825674901
O     -0.812281521646     2.994648197251    -0.776850067548
C     -1.293227825612     2.797210506994     1.673359612080
H     -1.899342111239     3.518442635472     2.243864329187
C     -0.152825744299     2.372143325297     2.570773933402
H     -0.555346422501     1.873328158281     3.477568308605
H      0.511051286037     1.664543072404     2.037534772569
H      0.438766645577     3.258273053398     2.884809190201
N     -2.069676322864     1.594355946526     1.377896524692
C     -3.331109305344     1.537469542837     0.852573251775
O     -3.838426690176     0.470851344871     0.421811285223
C     -4.152940858574     2.770727281223     0.857547346915
H     -5.144181883812     2.526961921682     0.433217086367
H     -4.270415623114     3.104869385067     1.901493397328
H     -3.663539120926     3.536202277536     0.231446246911
N     -0.463023383946    -1.601069978005    -1.750023385400
C     -0.283985265138    -2.356050961730    -2.877016952445
C     -0.255232617417    -1.748947420024    -4.118432563306
C     -0.416762774298    -0.384896937943    -4.232439740499
C     -0.599074824752     0.346775433021    -3.087469242957
C     -0.623762542578    -0.327279348889    -1.840164728600
H     -0.154697830514    -3.428557125778    -2.791030692973
H     -0.110186429393    -2.351256262496    -4.999886416793
H     -0.398671171799     0.098315051205    -5.205745668033
H     -0.732423405212     1.408624687194    -3.118558929786
O     -0.786192214828     0.486085649811    -0.793697283035
H     -0.915811447127     1.969583892119    -0.791811137513

