# STO-3G

title

0 1
C     -0.842338376628    -2.397366632106     2.276400292387
C     -1.764558663664    -1.345317790339     2.527602193820
C     -3.051644672056    -1.397874769873     1.979186239419
C     -3.436364331849    -2.502944602861     1.185862029596
C     -2.537348765726    -3.554365885998     0.936254721564
C     -1.243961110515    -3.515569929794     1.490987822618
H      0.064137427199    -2.435333741073     2.870618724161
H     -1.468489158576    -0.493996564377     3.131237178573
H     -3.743303042736    -0.580435681462     2.158930029342
H     -4.437902124148    -2.539511756042     0.763052821135
H     -2.827567376758    -4.391309317004     0.309227785904
H     -0.572640545480    -4.353944251751     1.330766601219
C      2.207312540540    -3.098025048311     1.554938670793
H      2.842698278477    -3.615971797579     0.844573253347
H      1.532817477553    -3.721461997559     2.130163127671
C      2.458191678305    -1.775853328847     1.913275450226
H      1.907606024098    -1.298864002617     2.711604068775
C      3.616494341047    -0.991629967965     1.443024761945
O      4.477476735324    -1.530607391125     0.696733613295
O      3.812265735665     0.293366724747     1.972601480716
C      4.874577680240     1.055076355733     1.382921029631
H      4.920662770721     2.054883707059     1.865330560112
H      5.855818512282     0.549809490289     1.530238623433
H      4.692637756920     1.205788060744     0.293972288383
Pd     0.686214250643    -1.848364909978     0.389934091872
C     -0.575988336947     0.987415874995     0.676635921111
O      0.738500957563     0.865146748587     0.967954064981
O     -1.392289828840     1.428169940015     1.508875458052
C     -0.982333096471     0.474380429251    -0.757111512337
H     -0.319421823962     0.978446436005    -1.480140406615
C     -2.427534659911     0.844520381062    -1.054692253305
H     -2.624920193251     0.845460298804    -2.142043082881
H     -3.104153935105     0.136339907608    -0.533406290430
H     -2.647656497767     1.872804988458    -0.697684064494
N     -0.788759838658    -1.004848789010    -0.803918644437
C     -1.062747280691    -1.923258716145    -1.753270113945
O     -0.647362722184    -3.125236699482    -1.657851705607
C     -1.858530889817    -1.572763558209    -2.948863985993
H     -2.894480932233    -1.381715173996    -2.628715671442
H     -1.386775364255    -0.705246156303    -3.437260286350
H     -1.849787267969    -2.434233948488    -3.641568081382
N      1.971727107989    -1.669644264422    -1.180530187308
C      2.198497291081    -2.795400134735    -1.925766706581
C      2.937199666817    -2.714882925976    -3.087261054654
C      3.457558493173    -1.511639010442    -3.505994723187
C      3.211527981388    -0.393683447949    -2.754125140756
C      2.446225665514    -0.493882851479    -1.568018672524
H      1.818230375423    -3.753660337066    -1.592549461365
H      3.116008836175    -3.608619694868    -3.661138396451
H      4.049222177945    -1.449794776207    -4.415232268694
H      3.592025933295     0.568728539472    -3.027735419134
O      2.258956514780     0.603131167006    -0.929341637176
H      1.413184277442     0.738949104159     0.135969511481

