# STO-3G

title

0 1
C     -0.086873441040    -2.250628513564     2.069834135401
C     -1.423982603186    -1.865146833663     2.365682711943
C     -2.496246736131    -2.566795585967     1.804439445717
C     -2.250076987787    -3.666384828788     0.949225172528
C     -0.935589484657    -4.069504752188     0.660682499151
C      0.151228036218    -3.378962543179     1.233102018030
H      0.706061996537    -1.819254946224     2.671586532033
H     -1.610141900177    -1.020872738935     3.020155964951
H     -3.513452613287    -2.257483073489     2.025337224224
H     -3.086854219859    -4.208099677135     0.513910762128
H     -0.749099754668    -4.904165636813    -0.007011720097
H      1.159335780301    -3.740617941149     1.057321456564
C      2.408858619783     0.014621223139     1.665804772217
H      1.948495030225    -0.005692450032     2.648968821424
H      2.412665593654     0.985405683871     1.181465113262
C      3.132208575827    -1.051287429028     1.140439652293
H      3.671306525121    -0.897697124423     0.220573739223
C      3.486670945665    -2.285853705106     1.861522341447
O      3.085999397404    -2.462362912207     3.041623196640
O      4.199263655620    -3.281824415811     1.174184669339
C      4.462024371986    -4.485466725252     1.909939159069
H      5.028643276583    -5.194165316592     1.267935716926
H      5.074660496629    -4.271169960884     2.815235950968
H      3.511457242526    -4.979207789882     2.216131527762
Pd     0.913059285708    -0.957346769329     0.234102523258
C     -1.554305966350     0.915210618754     0.835320295217
O     -0.342359426720     1.420629327802     1.151186745910
O     -2.463770668169     0.830491224871     1.683474583437
C     -1.706582396992     0.407986996964    -0.649526391278
H     -1.351393008711     1.219305923023    -1.307089389989
C     -3.172067896183     0.126956876877    -0.947551376457
H     -3.370130283761     0.129343318981    -2.034548034019
H     -3.458898525475    -0.845008441225    -0.494603988288
H     -3.816266820227     0.921287688955    -0.514415364691
N     -0.872804940842    -0.816191393605    -0.835282571277
C     -0.748815600890    -1.691178812390    -1.852861054234
O      0.199033935506    -2.544248596525    -1.885257198271
C     -1.703386427581    -1.700152578773    -2.981423645537
H     -2.686849536452    -2.014762358724    -2.598903856753
H     -1.711527651669    -0.696694663340    -3.435314939190
H     -1.357511953044    -2.437376918690    -3.729091649325
N      1.847654084008    -0.017647596832    -1.324919508899
C      2.462534645261    -0.798935062128    -2.267191851065
C      3.021935161458    -0.214435242661    -3.383384892014
C      2.961234587152     1.147831056707    -3.569231177526
C      2.330123710742     1.910366815953    -2.622559226302
C      1.752450127699     1.295468399946    -1.486430911667
H      2.559432903825    -1.866803481334    -2.112663465416
H      3.515505900582    -0.836623997535    -4.111810967006
H      3.405343060481     1.608406451755    -4.447684160437
H      2.248909907493     2.974781870998    -2.713878515837
O      1.165833005592     2.083497819246    -0.662146450760
H      0.315974635313     1.683617818845     0.350248230919

