# STO-3G

title

0 1
C      2.258528905668     1.949851255239     2.398762744985
C      2.501347248705     1.814610896888     1.005429836155
C      3.716799799311     1.248317173048     0.544392966487
C      4.690214285244     0.839861520392     1.467074346484
C      4.466577405742     1.005889458256     2.855914084647
C      3.256188284166     1.546542759940     3.319035266310
H      1.333289332994     2.413559963375     2.734623847264
H      1.805673884456     2.260696302081     0.301365225780
H      3.892703020164     1.139688071152    -0.522565153823
H      5.624578061048     0.408150208293     1.115910876778
H      5.242687476370     0.718728391721     3.562345239204
H      3.089134463279     1.684575740982     4.384736426957
C     -0.607107052150    -0.116347259669     3.386505148737
H      0.093572660342    -0.281408200713     4.201053385872
H     -1.083382122105     0.856234612578     3.364577715801
C     -1.031061841699    -1.173043922888     2.562835324727
H     -1.835316054304    -1.019929548747     1.861005198252
C     -0.650672468467    -2.582892317698     2.772674864579
O     -0.000996718469    -2.910555350752     3.803572707590
O     -1.035111143936    -3.538698072351     1.819697330635
C     -0.515694880426    -4.861008034187     2.013404739143
H     -0.877281700287    -5.519487734267     1.194496562200
H      0.598103970067    -4.854137296828     1.988841729132
H     -0.864350007421    -5.285598783636     2.981975399518
Pd     0.621063296445     0.051114922489     1.522125500002
C     -1.824712920091    -0.480035754399    -0.658028953231
O     -1.036391218943    -1.580731381716    -0.601816861616
O     -3.064330049951    -0.583413111660    -0.648889264813
C     -1.177542132794     0.946412236578    -0.659610020305
H     -1.997881146396     1.570753252139    -1.032283434221
C     -0.011164285791     1.111120405446    -1.612775206170
H      0.240835912718     2.187712290120    -1.703506711361
H      0.883543747944     0.577102597970    -1.242073068739
H     -0.277644993369     0.721384294341    -2.617456653278
N     -0.741572824114     1.339728149417     0.699519272249
C     -1.120400949082     2.444190655376     1.377207215619
O     -0.691064094976     2.736595239621     2.538486264854
C     -2.095770499337     3.376905380505     0.762945994558
H     -1.673329287162     3.762850856502    -0.179542577402
H     -3.046244013645     2.837283705048     0.610087958662
H     -2.266790637911     4.219786733043     1.458696396312
N      1.982666851210    -1.419772632920     1.917209387117
C      2.704811925380    -1.806767888962     3.009870699386
C      3.649379663008    -2.807037486163     2.882998900429
C      3.868040391160    -3.422124292207     1.667310891510
C      3.131532454563    -3.018942166044     0.582478604352
C      2.178170670984    -1.989087250965     0.739046167521
H      2.532022419318    -1.334450782827     3.969540038975
H      4.210428088369    -3.112306582382     3.750211324793
H      4.609360932311    -4.210716465687     1.571554055911
H      3.256167685830    -3.450130161282    -0.389340145092
O      1.505797380203    -1.605568677085    -0.295288061715
H     -0.019811018656    -1.519052411850    -0.537008495486

