# STO-3G

title

0 1
C     -0.800334229753     1.775133332657     2.854907259877
C     -0.025873336906     1.596689232297     4.019366316309
C     -0.227444273138     2.439895801371     5.129875047217
C     -1.200033628206     3.459155151300     5.076861891861
C     -1.971041190166     3.639052928388     3.910881923887
C     -1.769815094252     2.796467107454     2.799668268421
H     -0.641626791674     1.127512695820     1.998565226637
H      0.723323754907     0.809905200116     4.044864238003
H      0.368877580759     2.304913893826     6.029416731688
H     -1.354952535554     4.108790258122     5.935514583869
H     -2.719701564081     4.426883382615     3.868227131207
H     -2.359871332744     2.935458726189     1.895319462715
C      2.435684493064    -1.080760497288    -1.819147675455
H      3.051384339158    -0.230466985497    -1.544002248087
H      2.791397085844    -2.056962555867    -1.498652952817
C      1.388337440796    -0.958756699592    -2.728979942798
H      0.856511040487    -1.834182498321    -3.077837722749
C      1.043343080056     0.281340712094    -3.449439251014
O      1.720796806424     1.326931379224    -3.260899685041
O      0.014571171406     0.237633946821    -4.403310083952
C     -0.392342763276     1.504332823963    -4.938336624834
H     -1.218080448055     1.347752772408    -5.665062473072
H     -0.767911398953     2.170063176235    -4.127439089081
H      0.450898299977     2.001965922038    -5.468670313602
Pd     0.568516119413    -1.038806860424    -0.560429426197
C     -2.344091027554    -2.111176365074    -0.754351950987
O     -1.766436576789    -1.342387234397    -1.730278113323
O     -2.938629586366    -3.164893443931    -1.019229894909
C     -2.129787996568    -1.654236504284     0.724438670313
H     -2.491011873597    -2.500251279124     1.323608137545
C     -2.953490168121    -0.428253527655     1.076084500213
H     -2.906366789170    -0.226433372539     2.163172222979
H     -2.573209102513     0.462323992151     0.543721227175
H     -4.015734396219    -0.589088459433     0.796960712121
N     -0.695727193942    -1.399632639478     0.976663439034
C     -0.017954261895    -1.434823186361     2.150613804774
O      1.188826003485    -1.059043498700     2.246765642399
C     -0.682395982541    -1.996115735509     3.349446364510
H     -1.537747867886    -1.357043138623     3.616683078125
H     -0.992468245576    -3.029801919776     3.125821263441
H      0.042371400840    -1.999318586969     4.184357936700
N      0.652057146288     0.934098289343    -0.261082111683
C      1.624554477730     1.528304574031     0.492688623342
C      1.599156765014     2.893984015551     0.675222276974
C      0.599215252805     3.660236269800     0.115943992076
C     -0.374961540242     3.039061457586    -0.624547120269
C     -0.336342353377     1.637109557177    -0.805807895336
H      2.413972116403     0.931025767421     0.932983510005
H      2.363499913925     3.360628524576     1.273288302651
H      0.578525803755     4.735926523115     0.266564789026
H     -1.175470549455     3.584230837949    -1.079108545850
O     -1.288522985626     1.114708004516    -1.484376889743
H     -1.600628525473    -0.305060657943    -1.587300390617

