# STO-3G

title

0 1
C     -0.001315860513    -2.302918519338     1.553231865724
C      0.792355756608    -2.635967529931     2.683127717275
C      0.436314284875    -2.160505883194     3.951694454461
C     -0.711350891405    -1.344125490927     4.103987772941
C     -1.491744604203    -0.994672243142     2.989625277160
C     -1.151553158017    -1.485905935960     1.710417084254
H      0.160431197554    -2.830122646178     0.619064831857
H      1.658115410663    -3.282596577815     2.563295559650
H      1.036455639595    -2.414233816110     4.821786995537
H     -0.978764169420    -0.980101319631     5.093027589505
H     -2.366947592722    -0.362241045278     3.105944170472
H     -1.789693939743    -1.265173800691     0.860304945728
C      2.709836712774    -0.024159353258     1.302786920288
H      2.825408444011    -0.789189518460     2.064611520751
H      3.413152061249    -0.064577398791     0.480542766246
C      1.826528463366     1.030865395931     1.473767176376
H      1.794091149212     1.829855252706     0.752010391236
C      1.097215096562     1.313493814004     2.723941234819
O      1.479064329145     0.774764287224     3.797619328036
O      0.160287057367     2.358287025355     2.731712016059
C     -0.453139972407     2.647098528112     3.994860198400
H     -1.177790795956     3.479753393612     3.866129258748
H     -1.005106567145     1.760321688350     4.378425454252
H      0.310139092961     2.962256030921     4.741729748509
Pd     0.947953739862    -0.624546219804    -0.046419871108
C      0.100656048132     2.416236110069    -0.921998323585
O     -0.876005108927     1.673066910097    -0.362697087929
O      0.344636457992     3.577271360651    -0.541139102317
C      1.008157403569     1.775077883002    -2.023351513485
H      1.730627206384     2.571720896347    -2.244523485963
C      0.247752255130     1.460938130197    -3.301668582199
H      0.906182626557     0.970393405680    -4.043307239538
H     -0.599961358532     0.785835399383    -3.104845402483
H     -0.149490681599     2.398989721615    -3.742680401085
N      1.711552366228     0.566758293692    -1.531439305618
C      2.876575277109     0.058745352888    -1.981557581123
O      3.333553565528    -1.062911066163    -1.594931643349
C      3.719165707883     0.873423962314    -2.890904505228
H      3.176549410341     1.056428459931    -3.829829987659
H      3.976603237832     1.813681369056    -2.375529075437
H      4.646398803199     0.311906759731    -3.110016605077
N      0.033380336256    -1.739790431819    -1.494352458753
C      0.701606361155    -2.728591896286    -2.162411186897
C      0.050760101701    -3.451101955733    -3.140421289274
C     -1.262706851657    -3.182189331546    -3.458431768401
C     -1.903537871978    -2.166581134287    -2.797913422902
C     -1.215759002362    -1.424559580756    -1.809699457194
H      1.720675930779    -2.976364862005    -1.894016314035
H      0.577052901813    -4.241644100319    -3.649703857580
H     -1.776657208004    -3.756921576233    -4.224309442302
H     -2.917099625199    -1.896144790731    -3.015471455145
O     -1.848915953341    -0.440653577127    -1.281106465612
H     -1.217849209086     0.767587929155    -0.772739563494

