# STO-3G

title

0 1
C      3.495987144783     1.089016668520    -1.515238646960
C      4.592424179357     1.173547988007    -0.633297257208
C      5.558545423314     2.186372030348    -0.795308534792
C      5.433800185473     3.117763893380    -1.845555947205
C      4.343083307977     3.033273248248    -2.734155914260
C      3.378317416895     2.020100342054    -2.568057740307
H      2.752665037827     0.303167705381    -1.398170146239
H      4.686859417858     0.451120945266     0.175104903911
H      6.401691897528     2.245289481762    -0.111118023850
H      6.181047427928     3.897506494253    -1.973149239697
H      4.248479551419     3.745622811090    -3.550392135604
H      2.541650226516     1.950787182725    -3.260626558102
C      0.812476244838     2.287248327788     0.440807732818
H      1.591280433353     1.938100256606    -0.228792100587
H      0.266577904701     3.170467597441     0.129177357075
C      0.628947337256     1.744703078620     1.699651770159
H     -0.094880155048     2.183360838355     2.374475340731
C      1.455137786263     0.668858720088     2.280235174183
O      2.443813849733     0.221193308954     1.644312363655
O      1.030058813040     0.085693202812     3.484343538039
C      1.690554346356    -1.134606472729     3.850924238730
H      1.267209913551    -1.512468891527     4.806157056672
H      1.532972941103    -1.918059543528     3.072792447131
H      2.782712243955    -0.969910924304     3.992658002392
Pd    -0.880454413914     0.639555013153     0.316727588884
C     -0.717814037267    -2.425458547165     0.718864415212
O      0.378952315990    -1.683096771634     0.393093492998
O     -0.691887620390    -3.269700845225     1.627103052320
C     -2.054134675099    -2.100995243751    -0.026931459701
H     -2.811183754107    -2.668811032293     0.530478087637
C     -2.059872241915    -2.581502299846    -1.467665723614
H     -3.061769649723    -2.450286498304    -1.918626926191
H     -1.339660023595    -2.006924345813    -2.074456614496
H     -1.790041271475    -3.657388827872    -1.511205219432
N     -2.354681283395    -0.651850021232     0.032495632619
C     -3.572172988147    -0.051888770903    -0.133817267595
O     -3.705090100495     1.182254182790    -0.349737853894
C     -4.793947567706    -0.868699062118     0.065813755898
H     -5.672915777318    -0.203632007311    -0.016864719806
H     -4.846472977343    -1.640303849972    -0.715624015827
H     -4.759863359519    -1.311069994417     1.076454910015
N     -0.770955493458     1.104045113178    -1.659851729523
C     -1.529314392939     2.070354720521    -2.258072223214
C     -1.421963263654     2.269455750387    -3.618741439175
C     -0.576185066733     1.491382156144    -4.379366882038
C      0.156100372013     0.513126575482    -3.757236272532
C      0.035746274949     0.320398921620    -2.360735583020
H     -2.175272200710     2.704777075672    -1.663769821368
H     -2.011505346873     3.040797480932    -4.085994462692
H     -0.494977460503     1.646896256214    -5.451788837093
H      0.820688022891    -0.131079678179    -4.297148496538
O      0.716941123418    -0.642385886605    -1.853924207939
H      0.505169568026    -1.248498594013    -0.573653209415

