# STO-3G

title

0 1
C      0.018924960166     2.982837972872    -0.657771464965
C      0.511520969075     3.230592932868    -1.968564032373
C     -0.332327316813     3.802934453760    -2.929658048869
C     -1.669412109762     4.126647814744    -2.590876442886
C     -2.163536157097     3.876778856745    -1.297612993357
C     -1.319413483874     3.312662660729    -0.315331933161
H      0.724696220090     2.729075642973     0.121458662764
H      1.545901720912     2.987098753217    -2.194358777875
H      0.039005273601     4.010212081286    -3.929599782145
H     -2.321388182363     4.576554701236    -3.336239933248
H     -3.193572204955     4.121872825802    -1.051625581082
H     -1.670108034676     3.161691920850     0.702120040609
C     -1.342334183017     0.421600256936    -2.342175502481
H     -1.476582482196     1.450576374481    -2.651393726582
H     -0.475799853684    -0.102207094018    -2.737356409540
C     -2.299801763057    -0.265528497935    -1.618572414611
H     -2.151906534776    -1.317662956743    -1.438515150436
C     -3.608285354470     0.257878163593    -1.191195025020
O     -3.951134369523     1.430777552608    -1.492764173893
O     -4.431211730736    -0.563111031610    -0.401204792742
C     -5.662481342579     0.024484098137     0.042011668512
H     -6.224478963066    -0.714255149151     0.653049908142
H     -5.467682756875     0.921385065274     0.673355259877
H     -6.298275376569     0.313682708380    -0.825555410115
Pd    -0.558371756781     0.578297162815    -0.169360141726
C      2.576457601506     0.888460066555    -0.365216595108
O      2.042513805321     0.074938746976    -1.299006516618
O      3.288602349313     1.862248258639    -0.686901928834
C      2.219753337227     0.673229192094     1.148337308714
H      2.795553654497     1.458024391660     1.656882474487
C      2.674338805217    -0.670203879497     1.687128485396
H      2.491853667704    -0.729702163965     2.777177772481
H      2.122992758199    -1.493962272568     1.205910704342
H      3.759829571408    -0.807121003734     1.500289603832
N      0.768736975796     0.846939321117     1.371782316610
C      0.130940895509     1.339186707905     2.448216876560
O     -1.137053014449     1.448346499858     2.492166283054
C      0.918145864574     1.805500631155     3.613687943119
H      1.499005087199     0.961265875962     4.014355536242
H      1.565337592645     2.636300651899     3.288436343371
H      0.217072009872     2.169523425154     4.387540463003
N     -0.801652424209    -1.308999944394     0.523413241940
C     -1.677049467196    -1.573062912954     1.539524934788
C     -1.831025423391    -2.870579666415     1.980925946986
C     -1.109976175123    -3.898109436963     1.412110912483
C     -0.224209157288    -3.603377928195     0.407433848793
C     -0.068595917337    -2.265908034872    -0.025648545244
H     -2.272366713986    -0.776918079896     1.968869704955
H     -2.534559783466    -3.077424005093     2.770226499620
H     -1.237537052307    -4.920915782557     1.756331209673
H      0.372502148855    -4.357540632812    -0.064450309476
O      0.808268437384    -2.050430266966    -0.937494142832
H      1.506255682961    -0.816645549380    -1.081838716962

