# STO-3G

title

0 1
C     -1.857117225174    -1.717974500732     1.286674516177
C     -1.700360897793    -1.260451132440     2.622362625723
C     -1.727311254143    -2.181306206722     3.681823919835
C     -1.934743224983    -3.555285735693     3.413877846953
C     -2.100497795716    -4.015576045244     2.091568920529
C     -2.066119941347    -3.099394969631     1.021672961285
H     -2.032566206184    -0.989516101997     0.502529267339
H     -1.591900271837    -0.192775729562     2.796453323450
H     -1.616011342760    -1.839738522077     4.707724329118
H     -1.976894929255    -4.262271351969     4.239828399480
H     -2.268288164694    -5.071640772748     1.898182926454
H     -2.204869625437    -3.431988468864    -0.002986567284
C      1.337071896039    -2.862118604821     1.724093492159
H      2.011400031159    -3.554619693495     1.229842051601
H      0.460034277905    -3.289052117019     2.192366523163
C      1.714306799356    -1.546974535346     1.981661087845
H      1.084356110936    -0.902998818254     2.576257605277
C      3.047830949912    -0.987357512565     1.691051735360
O      3.945132387956    -1.723552628291     1.198841112907
O      3.324519454897     0.327972163120     2.096521089371
C      4.586934879133     0.859080729502     1.671772177484
H      4.685645323654     1.904522654575     2.034561712489
H      5.429761236644     0.262771352322     2.088771330205
H      4.653521137442     0.871943646633     0.559680339281
Pd     0.294906958927    -1.634538066841     0.123771923974
C     -0.702556423065     1.201813684098     0.043266053487
O      0.552704495472     1.189219495046     0.532620263775
O     -1.688460750183     1.476520169631     0.758983098484
C     -0.836949592682     0.731155653991    -1.455464069511
H      0.008930956860     1.144967350771    -2.025150344657
C     -2.144984338178     1.228553230732    -2.047443946744
H     -2.119279809748     1.192179777311    -3.152500672514
H     -2.987168763394     0.620412704446    -1.655626979714
H     -2.314135816069     2.289157983228    -1.764443131706
N     -0.790791878122    -0.754003281763    -1.424176247801
C     -0.990030710066    -1.707432401189    -2.351331790065
O     -0.779624140380    -2.938946598113    -2.091119054548
C     -1.446832264100    -1.356974291411    -3.712369492877
H     -2.494265630360    -1.023133596963    -3.652339177868
H     -0.771978743150    -0.584859482270    -4.116244764252
H     -1.392259857637    -2.262407966990    -4.344529837717
N      1.878966533754    -1.709681160270    -1.136224023388
C      2.128559199975    -2.919010611603    -1.725959100959
C      3.080201904857    -3.015779409210    -2.718693036795
C      3.791986284438    -1.907882866893    -3.118624289201
C      3.519533849728    -0.703405786166    -2.525663603454
C      2.532623838677    -0.619336133920    -1.514577221860
H      1.589761142208    -3.801866980289    -1.402670602797
H      3.274240473081    -3.973865774398    -3.170942571819
H      4.551433484429    -1.986555909881    -3.891691626604
H      4.041055161600     0.191598782245    -2.795513243754
O      2.337555725928     0.548836432286    -1.022747871388
H      1.340413153962     0.920758702219    -0.148188872942

