# STO-3G

title

0 1
C      2.083529056878     2.385316013007    -1.526309182202
C      2.952963208301     3.287715083433    -0.855834218313
C      2.641022163125     4.651827744403    -0.792657889697
C      1.453434103384     5.138879700136    -1.396755910014
C      0.588625866138     4.260080103911    -2.065229824212
C      0.903599831607     2.880734679196    -2.141398401320
H      2.405422204981     1.357056550320    -1.669326503808
H      3.870904003435     2.908935648489    -0.414003386785
H      3.315061343989     5.342741104848    -0.292762706517
H      1.220251611037     6.199938379460    -1.350393524561
H     -0.313810348610     4.635291242469    -2.540197931372
H      0.288990365692     2.219681423269    -2.742382975247
C      1.184275631977     2.194966979650     1.858800740124
H      0.992458735296     1.525579803622     2.688274044666
H      2.222253354422     2.284006751950     1.558898562249
C      0.199078786641     3.017840812303     1.336207787327
H      0.464266041825     3.754255299930     0.593198530110
C     -1.162090800760     3.156756060836     1.882316217476
O     -1.910939272799     4.049248163708     1.403438589388
O     -1.532795561975     2.429825759453     3.030790545589
C     -2.879423033395     2.629915298235     3.482325021538
H     -3.064505120245     2.005873590406     4.382194972268
H     -3.050252350006     3.695519700717     3.757611058840
H     -3.606504432744     2.331520264349     2.692205846543
Pd     0.429035320755     1.144241469906    -0.052030778877
C      2.050227450919    -0.720880137272     2.103623457827
O      2.770057906674    -0.339479748703     1.025348455876
O      2.503309230445    -0.604800632617     3.258313474118
C      0.590070446370    -1.254120961089     1.906445523621
H      0.250400143453    -1.428834308934     2.936094270636
C      0.549647526499    -2.579589794925     1.165466976805
H     -0.490851120022    -2.946797839423     1.078998124850
H      0.956314453184    -2.473242246927     0.146784589950
H      1.150438130120    -3.337167188338     1.710705680490
N     -0.289228750112    -0.272807994781     1.232933044968
C     -1.623570790456    -0.135435847386     1.346605597426
O     -2.288440686547     0.666923796486     0.618946164099
C     -2.342692765525    -0.882718237827     2.405697439129
H     -2.222485536154    -1.962750540108     2.237132792116
H     -1.933258599588    -0.566823524418     3.379910864489
H     -3.414567786828    -0.617695559250     2.355582259063
N      0.129656092691    -0.155027561128    -1.586790071493
C     -1.097095433273    -0.290926934168    -2.174913689207
C     -1.258012162294    -1.180711888616    -3.216586739178
C     -0.199464078667    -1.941536411582    -3.663534738040
C      1.013552495822    -1.811530426650    -3.038267102148
C      1.156857769999    -0.905872421166    -1.961720333157
H     -1.926296358187     0.328848071781    -1.857933456966
H     -2.222587756264    -1.269178910396    -3.688916409905
H     -0.326459900728    -2.637481358624    -4.488492043751
H      1.867866340698    -2.390022829384    -3.326667427689
O      2.298771199484    -0.880093275185    -1.373490073656
H      2.495551105247    -0.568872631813     0.037444337734

