# STO-3G

title

0 1
C      2.594357681522     2.463988033307     1.777588586003
C      1.944687682680     3.459028566740     2.554044559587
C      1.788010988681     3.278556516090     3.936040943850
C      2.280149440570     2.103330711567     4.553992451032
C      2.923950126594     1.112583398188     3.791718315956
C      3.098159001369     1.293177797607     2.402668171616
H      2.855464233898     2.677043838013     0.747795828220
H      1.571546144504     4.360224688537     2.073423225225
H      1.293733908644     4.041405154944     4.531583179591
H      2.160854418523     1.969441440319     5.626361382158
H      3.298214291478     0.210654417473     4.266921727585
H      3.633944411762     0.549195647501     1.821171013050
C     -0.230077048764     0.771988895085     2.230224401681
H      0.199274967195     1.511216594126     2.894540598655
H     -0.050216044832    -0.269224416583     2.474007561930
C     -1.140562126010     1.118360206421     1.243915630160
H     -1.653984805011     0.334142671169     0.712684093548
C     -1.611015118331     2.481142519400     0.947199447816
O     -0.978149709526     3.473337114912     1.398194477687
O     -2.748915817316     2.640343719113     0.137765589228
C     -3.040177044161     3.983913806731    -0.269645789439
H     -3.951015713502     3.986401231856    -0.905590608944
H     -3.228799769584     4.635331545068     0.613639097841
H     -2.198669782200     4.401690405758    -0.868712087468
Pd     1.052706542401     1.020521005515     0.338158182321
C      0.252254548741    -2.039311859800     0.604513075679
O      1.469274330338    -1.797996979708     1.131070469480
O     -0.674568138481    -2.511129010784     1.293470627995
C     -0.024630724939    -1.634720912997    -0.881027206398
H     -1.044673353801    -1.999595287980    -1.059563013956
C      0.912234100372    -2.312081189502    -1.866375688136
H      0.501322442632    -2.257411058916    -2.891589669745
H      1.900196679929    -1.820781157122    -1.868047420292
H      1.039302555741    -3.382868838426    -1.602600943848
N      0.052600631962    -0.164777045071    -1.026215625345
C     -0.566900365493     0.637674819098    -1.909226256935
O     -0.446406228725     1.902900472834    -1.879500573552
C     -1.454987262092     0.045200534450    -2.935979370822
H     -1.906369299851     0.869885208447    -3.517121636303
H     -0.850337977766    -0.580984785191    -3.607180207052
H     -2.254747697652    -0.525784760798    -2.435633459191
N      2.584338263195     1.085917271503    -1.002896337207
C      2.642637885113     2.036039740175    -1.984786810437
C      3.683295979061     2.018631724670    -2.889732472347
C      4.659916332259     1.049408737675    -2.820978494647
C      4.566383476781     0.090283359265    -1.846404868660
C      3.484372312742     0.113255989149    -0.935119538334
H      1.902561378955     2.825724161089    -2.024396502932
H      3.733297267851     2.781220032204    -3.649301021618
H      5.483082839419     1.040747630610    -3.530374394378
H      5.284990445378    -0.698680016094    -1.754007361667
O      3.428423982928    -0.851937948824    -0.090331381850
H      2.255838205671    -1.378532555278     0.565372336971

