# STO-3G

title

0 1
C      1.595224362552     2.786014204436    -1.005063776565
C      2.827664177196     2.111103333286    -0.802067147881
C      3.846182572247     2.730021481985    -0.046937988522
C      3.645404710390     4.018496933093     0.480761811663
C      2.420007100620     4.697183589277     0.274836745089
C      1.398844985119     4.084713402094    -0.466780803099
H      0.879180269878     2.385729417313    -1.712380743157
H      2.991693690271     1.132478593877    -1.243863330441
H      4.786752447924     2.211441390588     0.115025124792
H      4.437829662565     4.499832108076     1.048934723063
H      2.274853277496     5.693160398247     0.684465839324
H      0.459055560029     4.602575592207    -0.638925542254
C      1.305365336053     1.776043024889     2.140153951834
H      1.692694879007     2.732057207082     1.812604776080
H      2.028315084375     0.985914790393     2.317052085917
C     -0.015614402093     1.610819504129     2.517743478567
H     -0.310971530595     0.684139595810     2.982220675718
C     -1.048568044101     2.658386692511     2.507449589659
O     -2.122283012632     2.457944909413     3.134853477531
O     -0.823672136021     3.850584204003     1.795732875904
C     -1.930089362263     4.761570911298     1.744396803712
H     -1.643245516264     5.658927068248     1.155766233360
H     -2.808229195705     4.285579341327     1.250069440151
H     -2.217767091207     5.093594343517     2.767830609123
Pd     0.309539717925     0.963514867993     0.228518552668
C      1.222371765110    -1.546734137003     2.000734754831
O      2.167785975224    -1.169017582501     1.114572551818
O      1.464370228316    -1.600600136469     3.222712155428
C     -0.228027259629    -1.835672112694     1.489686645260
H     -0.761800162674    -2.153057245842     2.395434747355
C     -0.285661817935    -2.966525595190     0.477939165833
H     -1.334951901385    -3.246175329039     0.267996810483
H      0.181506467120    -2.666269469209    -0.474663225188
H      0.243212153718    -3.858692250699     0.873428115760
N     -0.826329469054    -0.610895602849     0.919899968451
C     -2.118834981164    -0.239271349225     0.871615921110
O     -2.486382104661     0.863267794842     0.355795355350
C     -3.150607564976    -1.107431906580     1.484657896157
H     -3.162347410383    -2.076981501804     0.966729570103
H     -2.925824490513    -1.208996839666     2.558956289625
H     -4.134292778380    -0.615944415871     1.367526892821
N      0.002088746774     0.222816128431    -1.641401315605
C     -1.103564824820     0.523467951181    -2.388184068702
C     -1.260707737212    -0.047226152147    -3.634014256942
C     -0.322107374647    -0.925187713634    -4.130213292326
C      0.763304090168    -1.235260732221    -3.352987613088
C      0.901550992711    -0.654415835272    -2.070480424502
H     -1.826760881756     1.244282601837    -2.028246467945
H     -2.124668522300     0.208441917826    -4.224997698424
H     -0.444498493238    -1.369538444931    -5.114350898024
H      1.515665247839    -1.925879098240    -3.676212929868
O      1.906562934807    -1.041271708068    -1.371303516598
H      1.988693351838    -1.112956004904     0.078728360703

