# STO-3G

title

0 1
C     -2.276524608104    -0.557532368701     1.169266288410
C     -2.895034282263     0.098704000312     2.255714092302
C     -2.254651221028     0.147124102361     3.506250591767
C     -0.979245323846    -0.442319439574     3.679846635186
C     -0.364593915685    -1.110454369900     2.610232094222
C     -1.014433542432    -1.184442478079     1.350520038595
H     -2.754088814196    -0.562632090732     0.195832628537
H     -3.864933558228     0.569085945361     2.118690263659
H     -2.734244032545     0.646507776278     4.344882533431
H     -0.476926818480    -0.379063089926     4.641661642918
H      0.608213286521    -1.576613548823     2.739637308843
H     -0.608389564223    -1.843532573660     0.587983567235
C     -0.593742226463     2.189021980134     0.790126740359
H     -1.003526512477     1.812150252322     1.718786020598
H     -1.276432220848     2.700415374975     0.116651056911
C      0.774856395210     2.202807587492     0.542112959129
H      1.131238453367     2.722782940024    -0.331882701652
C      1.830648007023     1.750239563073     1.464300727232
O      1.529599168828     1.305502080518     2.602874548986
O      3.169517868140     1.860612776161     1.052657811994
C      4.144708183868     1.299065703251     1.941871484342
H      5.159335813698     1.438404118712     1.510953949951
H      4.114707532443     1.804096337388     2.934030598553
H      3.971887188310     0.206541544018     2.075332129701
Pd    -0.187948643868     0.336158665249    -0.493895839364
C     -2.086702257836    -0.615350048993    -2.985650901399
O     -2.548475955517     0.097472679806    -1.911000337848
O     -2.312926762257    -0.326939535790    -4.171937026974
C     -1.221029699526    -1.829491953430    -2.575214086884
H     -0.816499257970    -2.219479440888    -3.518860400020
C     -2.055459102922    -2.917737179219    -1.921405060125
H     -1.427429853050    -3.794121879545    -1.672425868658
H     -2.510299902070    -2.540185404032    -0.986559531313
H     -2.863930043310    -3.242488969904    -2.609352898625
N     -0.156732590472    -1.404759552533    -1.642581215410
C      1.073091363522    -1.931096785284    -1.496984836870
O      1.916671013660    -1.434666259013    -0.677871280538
C      1.495051511821    -3.079967920695    -2.332550838910
H      0.829303224301    -3.933099338542    -2.134024327543
H      1.466513479041    -2.771188140226    -3.390187736895
H      2.531287857766    -3.351392315319    -2.057972619171
N      0.299495828297     1.405780039718    -2.156481406063
C      1.536309454896     1.250850356641    -2.720004059879
C      1.899848656338     2.029188960827    -3.797279733972
C      1.027489685200     2.957262053497    -4.320833554533
C     -0.209922098466     3.091528173130    -3.749211376560
C     -0.577855565074     2.279013263734    -2.650723562952
H      2.241850179185     0.544604822906    -2.302944771328
H      2.880269298016     1.910418356589    -4.227829218012
H      1.313958960119     3.569363996033    -5.171791515564
H     -0.936729099026     3.783206099920    -4.124579118108
O     -1.768060275653     2.437539824967    -2.192391912349
H     -2.450987045318     1.137522394488    -2.016960559199

