# STO-3G

title

0 1
C     -0.668389948462    -0.600369960613     1.697981189180
C     -2.001682523917    -0.292101574667     2.044993272123
C     -2.864077783307    -1.318017380834     2.475141557061
C     -2.390790303821    -2.642049567644     2.563963953625
C     -1.056636576040    -2.947606376878     2.217780890574
C     -0.192764932615    -1.928826934071     1.782256239515
H      0.073793241366     0.192257373551     1.539438797260
H     -2.369747134312     0.727731270483     1.985552588032
H     -3.892235129858    -1.086288106115     2.739778681054
H     -3.056646719926    -3.432013625096     2.903780159203
H     -0.694863661436    -3.969634426423     2.293786617037
H      0.835706871536    -2.142116348217     1.508070682311
C     -0.582992575741     2.647221672927     0.573427018953
H     -1.002702431526     2.363771547259     1.534051110670
H     -1.267290401801     3.041502283438    -0.171917861482
C      0.790291585219     2.709417504146     0.367008523498
H      1.155125711285     3.130744050866    -0.555435835114
C      1.824902476556     2.451319738550     1.383365188931
O      1.489826847168     2.031390393069     2.522427740357
O      3.173654248937     2.621287139447     1.031174147349
C      4.133449945942     2.251093659341     2.031026234428
H      5.158818423804     2.426820342952     1.640160333812
H      4.002588078592     2.862391159712     2.952795123475
H      4.040951270220     1.170529814914     2.286197087763
Pd    -0.099854375449     0.679762519690    -0.505264350646
C     -2.171058430827    -0.395639683995    -2.697488140564
O     -2.491745047471     0.491249251867    -1.702293072813
O     -2.460264034122    -0.247628475780    -3.895571899001
C     -1.373339728251    -1.606098566367    -2.162834441675
H     -1.133591870419    -2.215176840009    -3.044517799232
C     -2.197713348226    -2.433088014259    -1.195657002093
H     -1.612907975462    -3.297420841150    -0.826058200608
H     -2.481999782193    -1.808493147204    -0.326103024913
H     -3.117505774919    -2.803622803198    -1.693459784450
N     -0.159953139017    -1.131387171084    -1.468367884671
C      1.023452703405    -1.748013644031    -1.334119399794
O      1.975771314392    -1.240674346925    -0.652690216116
C      1.259798431960    -3.034417528769    -2.030036077460
H      0.534193553649    -3.776364423516    -1.662692312355
H      1.159685248926    -2.863670948625    -3.114491297293
H      2.286564800362    -3.374855192157    -1.801763003030
N      0.359747491236     1.579358687949    -2.271159269494
C      1.566218401189     1.294990637156    -2.849987189082
C      1.944091045727     1.947583389021    -4.003139158003
C      1.114929353490     2.876839259501    -4.589452385458
C     -0.093010734027     3.142361894441    -4.001771511748
C     -0.477817009849     2.459384280443    -2.823294566827
H      2.241252380248     0.587927376691    -2.388295215794
H      2.901113387347     1.726103387966    -4.445559091743
H      1.412113136495     3.388480834179    -5.500906094430
H     -0.786249422469     3.842751299596    -4.421772192216
O     -1.637781348514     2.743647071261    -2.353147810720
H     -2.390802249661     1.489215444839    -1.975376014530

