# STO-3G

title

0 1
C      0.242702239758    -1.906502523257     1.127126088311
C     -0.786838137708    -1.325921244225     1.912440473097
C     -0.556954354695    -1.059092521772     3.276098280574
C      0.689823112036    -1.373325819654     3.853499417418
C      1.717728707749    -1.953541462382     3.074742732713
C      1.492814724657    -2.226624281002     1.715873169299
H      0.031830942214    -2.268194649426     0.121297713909
H     -1.737362501720    -1.069808531479     1.454592989192
H     -1.340727883521    -0.610816896156     3.880972208262
H      0.862335264567    -1.171084794518     4.908326310991
H      2.672181113004    -2.199827187204     3.532878340580
H      2.261161054760    -2.694125951140     1.105407932360
C      2.265777785729     0.827468793256     0.325015517013
H      2.729699189879     1.431151789763    -0.447768310706
H      2.769846840771    -0.096479156792     0.582133029855
C      1.221625709127     1.327409688861     1.103732284550
H      0.873855270196     0.765283121976     1.954721388141
C      0.722755143434     2.713164832175     1.048433694652
O      1.322952297011     3.565430445407     0.339043777048
O     -0.285546344933     3.092875306305     1.950407400783
C     -0.816682103983     4.411768078169     1.762722045317
H     -1.618077648915     4.596338724986     2.509289946140
H     -0.025135534085     5.182636893670     1.900873787613
H     -1.260645346474     4.514457733634     0.745374820892
Pd     0.436144867411    -0.108142048372    -0.567917018688
C     -2.529024576040    -0.263824969850    -1.920147210717
O     -2.172193231981     0.244914307003    -0.699775789792
O     -3.331711658814     0.272572252675    -2.701088218903
C     -1.815575756950    -1.596453956604    -2.242811796899
H     -1.992876596783    -1.767843400805    -3.313371711190
C     -2.428038738355    -2.746023539166    -1.460261738051
H     -1.902142634876    -3.694445757135    -1.682229769476
H     -2.350050630787    -2.547301356352    -0.373723353673
H     -3.499564022639    -2.859400922897    -1.727806478869
N     -0.381093800764    -1.498975762543    -1.913614455388
C      0.644909235894    -2.155418338423    -2.483266745587
O      1.846512776255    -2.004393298673    -2.079543717013
C      0.399973658440    -3.044555651240    -3.643622228481
H     -0.281813874094    -3.853646136635    -3.341324849393
H     -0.020773489676    -2.436897706261    -4.461758632212
H      1.365369125221    -3.476785433007    -3.966020672972
N      0.502331659691     1.292865528363    -2.027034891718
C      1.419768064010     1.164449592226    -3.033282311849
C      1.487327328148     2.116053804920    -4.027692300448
C      0.641239467679     3.202572807227    -4.018500084340
C     -0.280039676720     3.309206269916    -3.011434213391
C     -0.346245605656     2.320487592245    -2.001413824960
H      2.111430132727     0.332800242680    -3.037492147428
H      2.221958723704     2.014124089258    -4.808687765109
H      0.700196805329     3.958177921065    -4.797052174023
H     -0.969726554088     4.126192915682    -2.955994534109
O     -1.258628068186     2.474635198539    -1.109811627534
H     -1.939139999560     1.285207869580    -0.734384754929

