# STO-3G

title

0 1
C      3.322558508096    -0.809565815988     0.471516486328
C      2.954311570451    -1.441514596117    -0.734279319674
C      3.867277504010    -1.501212186139    -1.806164679293
C      5.149739843823    -0.930480377337    -1.675089999711
C      5.520952768340    -0.304662852531    -0.468272935773
C      4.607901295693    -0.246658611306     0.604368589464
H      2.621403257972    -0.766225227213     1.300080200710
H      1.965033437681    -1.883324632403    -0.821106601367
H      3.583517888382    -1.992933323032    -2.734243171045
H      5.854442285534    -0.978732106369    -2.502438508943
H      6.513342003467     0.128330373557    -0.362817111070
H      4.897656259626     0.227319765318     1.539977843204
C      1.181700467463     1.691175408554     0.279053187361
H      1.524838247686     1.129173458122    -0.585989499476
H      1.657620440968     1.424342555866     1.215374019776
C      0.357284856645     2.810822446018     0.190252118859
H      0.198912015390     3.419598085865     1.066176952698
C     -0.170443863581     3.360354383693    -1.068584240871
O     -0.250820269289     2.606892853113    -2.074889846285
O     -0.793893216475     4.618163603510    -1.044228119106
C     -1.414683277847     5.035102878586    -2.268558296069
H     -1.864030926616     6.042099084644    -2.128972767714
H     -0.667051183594     5.098428826051    -3.091575621940
H     -2.228173216255     4.331707999197    -2.559099182803
Pd    -0.921525604991     0.917619102649     0.482802773316
C     -1.169973578105    -2.241937207954     0.898550720626
O     -0.054800508157    -1.472460924422     0.670527352419
O     -1.198650823389    -3.233950008383     1.639168631329
C     -2.410102655165    -1.702307651994     0.145011567453
H     -3.250596914592    -2.313077793443     0.495800736369
C     -2.279203107082    -1.863371138110    -1.355146965577
H     -3.206453576474    -1.512379830562    -1.852161705998
H     -1.428393260424    -1.252811097163    -1.723363611065
H     -2.108612881463    -2.929004348187    -1.614948324907
N     -2.575128154816    -0.255872772201     0.426309189001
C     -3.727850292873     0.386894506986     0.748535837687
O     -3.760717203293     1.617318064044     1.035150757598
C     -5.006928947094    -0.362333101973     0.725831023872
H     -5.827880016823     0.346893011409     0.937111255937
H     -5.140371636684    -0.795823891741    -0.278497947318
H     -4.980018881472    -1.134424679062     1.513628439132
N     -0.810178775093     1.209882394528     2.490262706526
C     -1.615012503873     2.135695185571     3.096816366758
C     -1.534238124358     2.321819250750     4.460111833144
C     -0.663348589600     1.576430664484     5.221580530765
C      0.131366049715     0.653211793847     4.595395558628
C      0.036607224843     0.462960938326     3.196000084552
H     -2.262631438805     2.770385545809     2.508470971597
H     -2.162359386724     3.061507168764     4.928269252193
H     -0.603360827642     1.721456638296     6.296863422931
H      0.823856670623     0.041573960817     5.137802971124
O      0.815551046026    -0.429156150819     2.701600871999
H      0.458469237394    -1.143054505161     1.551016995273

