# STO-3G

title

0 1
C     -0.367348868759     2.781063717543    -1.086962541865
C     -1.704018837853     3.250926943925    -1.033629974679
C     -2.520923702351     3.163610591264    -2.170727995545
C     -2.014128670115     2.605661866426    -3.366775022248
C     -0.692360461607     2.126137696920    -3.422634763750
C      0.137964225786     2.219488161030    -2.286708877175
H      0.288200676634     2.998584934056    -0.243152282845
H     -2.082897327237     3.662021711390    -0.102930636225
H     -3.544124434842     3.528266931123    -2.132316376919
H     -2.649833104494     2.544240254259    -4.247149587692
H     -0.306249615966     1.691514877387    -4.340974176270
H      1.167006878456     1.876457842730    -2.340965926422
C      0.399802920393    -0.229875047695     2.413132097938
H      1.267237333469    -0.873440442945     2.298097734840
H     -0.549222068822    -0.734276104618     2.536646918347
C      0.506634311024     1.144257850317     2.680210028609
H     -0.386610818904     1.726279424870     2.865871709499
C      1.786101714157     1.824746959872     2.938940311245
O      1.814264356859     3.083121011050     2.956416503699
O      2.965092571467     1.068457744568     3.072840577064
C      4.155198794740     1.805314717365     3.386305989494
H      5.010972525783     1.101075316289     3.468777243672
H      4.390059971850     2.543146236701     2.586961006144
H      4.045888881298     2.336072682561     4.359196913535
Pd     0.063442053859     0.787596945540     0.438925223165
C     -1.840527449267    -2.125847604128     0.686244369220
O     -0.526432253215    -2.464507695631     0.652070302148
O     -2.656987959718    -2.803711484220     1.334753833955
C     -2.328860218117    -0.819657534188    -0.033237356429
H     -3.420117596104    -0.932671231585    -0.043232240375
C     -1.883535667948    -0.700871379404    -1.475451000715
H     -2.424620254337     0.141039879029    -1.953107922747
H     -0.799387273557    -0.496558270835    -1.547568255270
H     -2.117401205448    -1.633634766787    -2.029493731950
N     -1.906815925139     0.400375096146     0.679126504954
C     -2.650113224624     1.209027820545     1.456764664078
O     -2.181984841352     2.242336926128     2.031237849431
C     -4.083106703905     0.893298504259     1.660892317524
H     -4.597497759125     0.955830559100     0.687702125066
H     -4.159702933505    -0.112010633729     2.110647413686
H     -4.514636419142     1.640096769738     2.353015949259
N      2.064123199417     0.789675506979    -0.045467997143
C      3.038891258125     1.748439786184    -0.031543189617
C      4.300486567798     1.451688441560    -0.503143621094
C      4.597536741622     0.193719577434    -0.983087195241
C      3.608078310189    -0.754327960053    -1.000165044186
C      2.318872575687    -0.429743366916    -0.520500098610
H      2.818096418730     2.741587000316     0.341619019251
H      5.061859157652     2.214178147760    -0.489335202762
H      5.594128487075    -0.039034861196    -1.348798657016
H      3.773544494647    -1.746080124126    -1.370047674744
O      1.415691363967    -1.337478615492    -0.584436615558
H      0.163318037155    -1.939469044239     0.117758162915

