# STO-3G

title

0 1
C     -0.945413169252    -1.109241469960     1.166676396742
C     -2.084327211761    -0.576164208679     1.820779672223
C     -2.032163395564    -0.305184804549     3.198115858356
C     -0.852741634110    -0.587348503568     3.922377498106
C      0.278601746665    -1.129499735447     3.276711623363
C      0.238991559570    -1.389947323983     1.894901199071
H     -1.042229899042    -1.512988664154     0.159214485935
H     -2.991839513675    -0.384223591143     1.254240686083
H     -2.896495093481     0.109835795030     3.709889256122
H     -0.814503905152    -0.377954098261     4.989082117666
H      1.177224635682    -1.340352279857     3.849530053432
H      1.090030974226    -1.810910362836     1.367655696475
C     -0.671897850225     2.287222141833     0.545333794208
H     -1.261461686928     2.000614099271     1.409512755886
H     -1.187023423952     2.805166651981    -0.258479268720
C      0.713558628035     2.170048987909     0.539778394397
H      1.264595444579     2.568826294653    -0.296481241907
C      1.540887412048     1.792016015710     1.697432219887
O      1.047846685884     1.816154913738     2.855740637595
O      2.916023633776     1.587241456516     1.494696413016
C      3.673337595524     1.230469924798     2.659302774368
H      4.737881860985     1.085011014954     2.375674060469
H      3.624566760059     2.037111713945     3.425823789451
H      3.296998983739     0.278913959715     3.098323611641
Pd    -0.259204097199     0.385634040407    -0.669248915445
C     -2.346161774509    -0.164871213672    -3.104816447967
O     -2.602728542075     0.614321550919    -2.008221295717
O     -2.571699958630     0.169055189698    -4.279351920978
C     -1.710544135342    -1.518382806470    -2.723340861537
H     -1.472498320804    -2.009459553280    -3.675977206556
C     -2.685172148776    -2.392765545287    -1.952809480701
H     -2.194394558457    -3.334429354932    -1.636811448158
H     -3.043085060931    -1.857952001962    -1.049775446264
H     -3.559448235232    -2.639148082877    -2.590936296659
N     -0.504952549223    -1.290624079607    -1.897291049362
C      0.609787771968    -2.039254181277    -1.842361939626
O      1.572499795317    -1.752696996205    -1.056787178438
C      0.753978181388    -3.212411374248    -2.735787124837
H     -0.061989485927    -3.922411343790    -2.529347875654
H      0.736706615374    -2.856853530917    -3.779264179918
H      1.726620395956    -3.695670213928    -2.527842805577
N      0.400991314440     1.460757031839    -2.268920584411
C      1.629327204084     1.131763373335    -2.774393304677
C      2.154922510154     1.852135560389    -3.824564018561
C      1.453672320050     2.897951567548    -4.380498365818
C      0.222153257330     3.207527317753    -3.868573115639
C     -0.314921145373     2.453584700019    -2.797975155623
H      2.206378210763     0.332715954134    -2.329542507770
H      3.128280466751     1.593638063595    -4.207443368099
H      1.867929558233     3.465333116152    -5.209566489106
H     -0.376457443594     3.999798859209    -4.270758721602
O     -1.488654775488     2.791463918422    -2.400271090076
H     -2.360960674624     1.623476641083    -2.155336880159

