# STO-3G

title

0 1
C     -1.143324042341    -1.134231931579     1.252842798147
C     -2.421342451265    -0.539988488048     1.428888116990
C     -2.790069662656    -0.037876616473     2.689691690135
C     -1.888260409490    -0.122325847609     3.771625688111
C     -0.613962404680    -0.704974354421     3.598982351090
C     -0.243574038771    -1.220534477359     2.344009440840
H     -0.915772369641    -1.682302496452     0.340805047132
H     -3.097635360819    -0.455452858162     0.584341913391
H     -3.766860482067     0.417059642060     2.829850998611
H     -2.173223897730     0.267504129345     4.746149302481
H      0.082170934861    -0.752141907291     4.432407643796
H      0.728898847477    -1.683409672472     2.201186836956
C     -0.403336496786     2.094531354704     0.960134912893
H     -0.769006761741     1.664829868074     1.884806409319
H     -1.100729364986     2.681957337822     0.369358274509
C      0.945072369682     2.077736140271     0.621086040774
H      1.262316221204     2.644171246637    -0.239018325715
C      2.043915309004     1.528942042005     1.434223497176
O      1.809933122891     1.041356589172     2.570974976946
O      3.350719911521     1.595425209502     0.922152718865
C      4.364630336328     0.957614633523     1.711044319763
H      5.348272006419     1.069288035687     1.206456880060
H      4.435190302238     1.424819780409     2.719569996971
H      4.152188278038    -0.130636782419     1.819588564203
Pd    -0.178762358496     0.336094042527    -0.490269933065
C     -2.252950378502    -0.239585294156    -2.916897331853
O     -2.573667137319     0.432946567054    -1.766060556111
O     -2.512294033184     0.159872551509    -4.063337306659
C     -1.506603571503    -1.564778880744    -2.641134641546
H     -1.196321476964    -1.933219284604    -3.628039896127
C     -2.425069403604    -2.594564390173    -2.004908594266
H     -1.875627707070    -3.531808227629    -1.793730134262
H     -2.830521300139    -2.204108600225    -1.051757920078
H     -3.271057050936    -2.821412136891    -2.686935488853
N     -0.355182999633    -1.318232673765    -1.748777338841
C      0.809587358289    -1.989330381924    -1.688398395065
O      1.731962288105    -1.653000769234    -0.874296588139
C      1.065183387492    -3.113538492693    -2.619427278522
H      0.312538516521    -3.898381738811    -2.451428705568
H      1.032593070393    -2.725384356238    -3.650533642448
H      2.072541365546    -3.519418074332    -2.411293140306
N      0.362221138124     1.460767081103    -2.096377372222
C      1.552437088676     1.216282154707    -2.724049860907
C      1.953561705498     2.022425185335    -3.767116319210
C      1.164918467281     3.069024233781    -4.190945837286
C     -0.026764049209     3.293998306591    -3.554061178617
C     -0.434530744725     2.453492311279    -2.491356082719
H      2.193124273314     0.412747185432    -2.385365766601
H      2.897553366764     1.831048248973    -4.249678248684
H      1.480788954792     3.703025465400    -5.015017581343
H     -0.689245848353     4.082044872975    -3.850085871017
O     -1.578671417259     2.706099109405    -1.963533971899
H     -2.387127567318     1.462579942092    -1.818327702293

