# STO-3G

title

0 1
C      3.225209147231     3.636771219417    -0.191679103686
C      3.991627551339     2.904275120589    -1.121500949642
C      5.057990204210     3.524747831722    -1.801411482592
C      5.358459459922     4.881149032048    -1.560069345674
C      4.590862638551     5.616485288400    -0.635522085553
C      3.528201606423     4.991981227019     0.048416325841
H      2.403507617813     3.160267969463     0.336299389382
H      3.732502472736     1.869065076554    -1.321377467649
H      5.650834283045     2.956378797611    -2.515181814443
H      6.182722562813     5.359356805406    -2.085233266110
H      4.818386985162     6.663415442442    -0.445967167162
H      2.929886996144     5.556702177471     0.761776488096
C     -2.034945960327     3.545601648084     0.617313301890
H     -1.344475899631     3.858352399476     1.399807325702
H     -3.048613433707     3.295579378859     0.919211704187
C     -1.696491843222     3.646190977560    -0.720450386890
H     -2.422089770687     3.420642592398    -1.485069715857
C     -0.437949612492     4.232386627269    -1.211671934978
O      0.350256594721     4.771946022159    -0.392352694222
O     -0.225841847266     4.312561039496    -2.597644034068
C      1.079625550423     4.749518283366    -3.001532933276
H      1.129608826078     4.789150806501    -4.110175209969
H      1.305016177679     5.765398563396    -2.604315671202
H      1.858483181902     4.037109393624    -2.649087534360
Pd    -1.358035300527     1.420047519290     0.179046174554
C      0.925995893828     0.274193253923     1.957044918487
O      1.086681131758     1.388805908026     1.183154472370
O      1.301086641172     0.227662796641     3.136487225425
C      0.157099076590    -0.926456804174     1.317090105833
H     -0.039006180040    -1.596497652639     2.164861594878
C      0.989629488883    -1.679709891567     0.293784916755
H      0.471260090151    -2.602514931121    -0.028210184507
H      1.162028580182    -1.060547422757    -0.603075264351
H      1.970035816682    -1.960364628156     0.732505586736
N     -1.115706752106    -0.475464031861     0.710776477870
C     -2.217821240704    -1.236125101990     0.433891756434
O     -3.157098970612    -0.837579146267    -0.306122338065
C     -2.370372686378    -2.539061811884     1.125759963914
H     -3.351907008618    -2.965534755757     0.849103488259
H     -1.572928893252    -3.220508286386     0.796770170750
H     -2.338035334368    -2.365893780177     2.215279805163
N     -1.006307675158     1.017092778798    -1.782025146166
C     -1.978028729666     0.641982870509    -2.666465521567
C     -1.629010321592     0.326195516653    -3.962866919625
C     -0.312800928951     0.374992906184    -4.369126217379
C      0.647364436975     0.723281064676    -3.454124546344
C      0.275640211444     1.032126020086    -2.125055158854
H     -3.018602032016     0.638197394545    -2.366029262486
H     -2.399329354716     0.048287984622    -4.662753262192
H     -0.040465015577     0.133817648933    -5.392997200179
H      1.686343263639     0.767170934488    -3.708590765809
O      1.225794346562     1.306644197872    -1.310996963165
H      1.130385374374     1.317802148129     0.120621725163

