# STO-3G

title

0 1
C      2.822538918010     0.458004889331    -1.061996658746
C      2.711323535058     1.115296842070     0.197861560008
C      3.629383649089     0.807851880213     1.241984930426
C      4.636268554149    -0.140669738604     1.029299421662
C      4.753654098926    -0.790530388117    -0.228472573784
C      3.861460425194    -0.494121068314    -1.264133383921
H      2.172804566401     0.775970435883    -1.870449198009
H      1.996888572491     1.925552323427     0.309115636828
H      3.546538446909     1.320720453844     2.196200658842
H      5.334174740555    -0.381983542014     1.826717316372
H      5.537966426550    -1.526739381605    -0.382372284738
H      3.956071983745    -0.991514700043    -2.225130185319
C      0.664884825533    -1.564262696880    -2.959382391022
H      0.633328073606    -2.405399116960    -2.272375782318
H      1.656823983765    -1.184375820661    -3.187350938043
C     -0.433570501453    -0.994181998961    -3.506336093778
H     -0.329867534765    -0.141869983375    -4.158764547190
C     -1.821198665164    -1.398940792254    -3.231143181113
O     -2.049444874943    -2.338878993837    -2.417912385558
O     -2.861272471549    -0.810929044227    -3.971258112148
C     -4.183846059129    -1.037520835605    -3.466091630164
H     -4.918973887031    -0.512787323499    -4.112529894953
H     -4.430659193433    -2.123135781805    -3.466636200180
H     -4.282274432743    -0.630232604511    -2.432799248055
Pd     1.101642794652    -0.711150158504     0.162736501668
C     -1.720294574118    -0.083523854973     0.115423420336
O     -2.767960403983     0.478847421234    -0.214853593606
O     -0.497127560069     0.541852048253     0.024443239528
C     -1.670436487094    -1.546565590908     0.684822325735
H     -2.377172180593    -2.154467092154     0.104287054953
C     -2.076740225072    -1.579886585171     2.142121610527
H     -2.062321467797    -2.625397874530     2.511121163115
H     -1.363054785512    -0.977543396718     2.741204218343
H     -3.100368100118    -1.167073446790     2.262039571751
N     -0.303623066210    -2.008904813271     0.589751761407
C      0.336612534135    -3.136326136081     0.366827743812
O      1.622844077432    -3.045885446031     0.171377178692
C     -0.367026056331    -4.424710137783     0.302840994381
H     -0.865037115903    -4.591943869265     1.271695661170
H     -1.104177045760    -4.363101942221    -0.517439886272
H      0.371200584267    -5.221135563962     0.100072021625
N     -1.433642511642     1.998794531248    -3.204569929868
C     -2.085490215922     2.392530012573    -4.341761251055
C     -1.503280573557     3.327845004827    -5.181473580337
C     -0.273764153876     3.875583343565    -4.873454113836
C      0.349618018113     3.468394065985    -3.721410127015
C     -0.298061568947     2.516254118521    -2.904092545467
H     -3.048540152733     1.960596426852    -4.587632296907
H     -2.020417012595     3.627958457724    -6.077364374678
H      0.187199613212     4.611879337630    -5.526204917778
H      1.299430871549     3.853492814343    -3.411394127823
O      0.390765353585     2.176012449833    -1.797078413249
H     -0.127508181440     1.580666212147    -1.167142851643

