# STO-3G

title

0 1
C      1.294355762212     2.734573305278    -0.927816287790
C      2.561208996276     3.342273785647    -1.064704452333
C      2.736929691858     4.408166347284    -1.973001799928
C      1.652175606327     4.874815436811    -2.739906055818
C      0.390087270149     4.265394594816    -2.600434022376
C      0.209016586808     3.193404913789    -1.701506592380
H     -1.331147495621    -0.364012763491    -0.270435119912
H      3.409431475763     3.002452887789    -0.472959056584
H      3.715508455570     4.873383089510    -2.072537293682
H      1.786240949724     5.701842724613    -3.432894085046
H     -0.455056917064     4.617760713694    -3.188265708466
H     -0.769014753452     2.724033956210    -1.619119589301
C      1.114164642791     1.753889847446     2.424087056987
H      0.340727709068     1.099432049789     2.820571555734
H      2.131405253947     1.521081746134     2.722010143033
C      0.793792385657     2.938513554969     1.782938343534
H      1.567236625989     3.649733298903     1.544253285848
C     -0.580890944815     3.428368643000     1.579282228838
O     -0.757332900255     4.621814804216     1.223229455409
O     -1.654737208610     2.527495411189     1.685379513608
C     -2.931568014253     3.032437669726     1.267630010621
H     -3.701610976099     2.240225951241     1.380413736945
H     -3.236309813638     3.905710111668     1.888109318329
H     -2.905359037027     3.331453478354     0.194697108305
Pd     1.167344420081     1.101812537867     0.249369712886
C      1.643490003767    -1.220379345528     2.493149064630
O      1.270489258547    -0.871342497489     1.231553902286
O      2.768041479071    -0.972055276258     2.962970236594
C      0.526658613897    -1.916686342990     3.351944722906
H      0.897331023127    -1.861983698739     4.380023440200
C      0.368718550738    -3.382729653918     2.991614714755
H     -0.346273875517    -3.860070874404     3.694365883253
H     -0.028557533418    -3.483571766215     1.960908213568
H      1.345351091466    -3.905194631659     3.064564712345
N     -0.818416155080    -1.307484068495     3.345465533887
C     -1.494272117981    -0.958948431423     2.312873377856
O     -1.083836512215    -0.999827207947     1.004280239711
C     -2.862609885418    -0.494505970585     2.541335034450
H     -3.409719261710    -1.299515939336     3.060411397653
H     -2.806991445717     0.405970404696     3.175664091484
H     -3.335983955221    -0.264109422562     1.569583952144
N      0.949000451936     0.088128517369    -1.555564413433
C      2.052862844809    -0.031565163192    -2.357005988196
C      1.920945369576    -0.475764380884    -3.656098246782
C      0.680580818973    -0.800186022969    -4.158886751325
C     -0.405234960692    -0.686251056718    -3.332936718977
C     -0.230616821055    -0.243998589107    -2.001951887160
H      3.029667203878     0.236910766530    -1.972171381301
H      2.793963759598    -0.556301004501    -4.281946281555
H      0.566719136733    -1.142775907691    -5.183719907067
H     -1.397345179443    -0.930405655117    -3.654062416829
O     -1.349058159648    -0.184089769560    -1.304744851307
H      0.049787174842    -1.083769274590     1.011694365265

