# STO-3G

title

0 1
C      0.531911010313     2.830082227876    -0.022601051547
C      1.663470462661     3.657493982047     0.151317342114
C      1.582626184976     5.034556477629    -0.146085783465
C      0.377626723767     5.590381841129    -0.616775308292
C     -0.746789979050     4.761608097926    -0.795076128877
C     -0.671864314841     3.382788124660    -0.504418092953
H     -1.249380945639    -0.497473835643    -1.468277686517
H      2.601149589691     3.251799045871     0.529355907016
H      2.458045681554     5.665509690974    -0.006602442339
H      0.316048553809     6.651485880137    -0.845884335159
H     -1.679992340103     5.179017510350    -1.167650605293
H     -1.542118876581     2.752957935719    -0.675532083964
C     -0.715956601360     0.905283128450     2.068880038723
H     -1.434505242142     1.703423062036     1.908576013801
H     -1.106097478583    -0.104111771513     1.971205349877
C      0.547054262374     1.136505437847     2.617403513828
H      1.178136877120     0.297916834105     2.881025212081
C      0.995630709321     2.447070128589     3.120014269367
O      2.207005186072     2.593538191604     3.427526266545
O      0.092894877154     3.523985963459     3.155155004559
C      0.637226195666     4.788624530382     3.556200755913
H     -0.165601513878     5.556595201836     3.535335351048
H      1.044345559113     4.734962640135     4.591205621367
H      1.440625715641     5.112821499901     2.857057991199
Pd     0.710369469937     0.874070208311     0.335624287946
C      0.856453176753    -2.078834124469     1.746444729794
O      0.877160379164    -1.318421467653     0.620629000877
O      1.637520746879    -1.898986145389     2.700899894149
C     -0.263961094856    -3.178790953290     1.807582643554
H     -0.277914749766    -3.494977559404     2.854866294816
C      0.083885397890    -4.387965994822     0.958935016948
H     -0.674657727819    -5.182568187130     1.120805658161
H      0.085087865059    -4.114129874864    -0.115847842230
H      1.081998436585    -4.783080830746     1.241527380982
N     -1.640409323568    -2.772825884894     1.461931670883
C     -2.003036409876    -2.103535386623     0.432420293273
O     -1.187515675042    -1.546259523670    -0.520038291302
C     -3.435878522483    -1.891247042776     0.217935878594
H     -4.005990629195    -2.364278808588     1.038719894127
H     -3.618358058485    -0.804472747021     0.189373869551
H     -3.704603108886    -2.347436444978    -0.750740148565
N      1.097957371772     0.701468608032    -1.726428877037
C      2.348088198373     1.072189154685    -2.144953463428
C      2.596719080282     1.287737834846    -3.484325769321
C      1.592320390681     1.131906539303    -4.413410377360
C      0.355629531931     0.744004852065    -3.973490330755
C      0.140659204906     0.518630973220    -2.594782503904
H      3.140089917932     1.209565533163    -1.418172272300
H      3.581281317813     1.589047433822    -3.801060587601
H      1.777814238772     1.306459507776    -5.469705372568
H     -0.468596722259     0.593733886214    -4.640614677671
O     -1.084207347244     0.136758275263    -2.296782414912
H     -0.125766833442    -1.524982692675    -0.112671694457

