# STO-3G

title

0 1
C      1.086669209531     2.738499699020    -0.028095702695
C      2.210346727814     3.515772920010     0.324243159507
C      2.206679813247     4.907793371614     0.087921874035
C      1.086727089441     5.527885828170    -0.496738112572
C     -0.031251170737     4.748527889959    -0.853005155063
C     -0.032997023391     3.357088764898    -0.625060233600
H     -1.229787864269    -0.328776411120    -1.237899844863
H      3.086364374927     3.059463852264     0.780276498359
H      3.076401972754     5.500095179552     0.364811309131
H      1.086099529296     6.600244944277    -0.676478832342
H     -0.899541785043     5.214615830325    -1.314384767915
H     -0.899408801565     2.769058646825    -0.921705711521
C      1.515820252107     0.929652514954     2.464283821903
H      2.072462233803     1.844203555555     2.638255402863
H      2.048222434361    -0.009621071034     2.588335987527
C      0.126005472525     0.945903118665     2.345882113733
H     -0.427193125686     0.016051154669     2.322200109180
C     -0.713771575579     2.144619214278     2.518127092701
O     -1.955663780079     2.041204767687     2.343138903390
O     -0.116644002876     3.370435999014     2.858139233894
C     -0.984818760131     4.511650642709     2.857128869975
H     -0.399171957941     5.418465564332     3.120114789918
H     -1.426788866767     4.669752671473     1.847179064343
H     -1.800468649143     4.391074494624     3.605526057549
Pd     1.102247343433     0.762520670864     0.262946205229
C      1.086344231247    -2.238472842046     1.617847406867
O      1.034960709021    -1.461257902138     0.498975270524
O      2.075357439230    -2.261796290911     2.373687426106
C     -0.216203550372    -3.054747581208     1.940022197697
H     -0.087136357982    -3.373999172534     2.978404111241
C     -0.335220638306    -4.300228144556     1.080153845281
H     -1.206544705219    -4.899077048678     1.419438096805
H     -0.491656789975    -4.021530065116     0.018044306645
H      0.581579266310    -4.919509194377     1.169432958059
N     -1.499639496990    -2.327999964107     1.867561537526
C     -1.905673965572    -1.613447953727     0.882897369306
O     -1.201190113473    -1.314289241574    -0.253215117213
C     -3.251056530732    -1.044569867092     0.975905966602
H     -3.284881307116    -0.392113543027     1.865953528941
H     -3.460018461596    -0.457825933509     0.062865041458
H     -3.970091893121    -1.875304038769     1.078984853728
N      1.188785128955     0.602189647120    -1.825405866543
C      2.407631984942     0.856681614715    -2.395115221628
C      2.514439315184     1.030036383302    -3.759076986564
C      1.397932833150     0.949805694550    -4.561161044320
C      0.192461684947     0.683066196947    -3.970640419708
C      0.121807990364     0.498658770689    -2.571036133192
H      3.288686445835     0.933316237267    -1.768893437402
H      3.477007017311     1.237722017801    -4.195869005391
H      1.471943016693     1.091052760046    -5.635999005250
H     -0.715371478905     0.600170965118    -4.533079851305
O     -1.088320810464     0.245536382848    -2.123152103450
H     -0.069492224094    -1.494049558706    -0.027420626475

