# STO-3G

title

0 1
C     -0.166156416392     3.298511686942     0.512563250516
C     -0.033982745453     3.850339180237    -0.783961879937
C     -1.128772275255     4.448384582484    -1.430093447899
C     -2.375864231124     4.526995001177    -0.779485842585
C     -2.514128100958     4.003351165102     0.522621422328
C     -1.420493636319     3.391755574558     1.161812503209
H     -3.157091499304     1.416061291855     0.407250663075
H      0.926723625059     3.791187627170    -1.292326292725
H     -1.009548233699     4.856621196242    -2.430569398651
H     -3.221457742232     5.002429668989    -1.270390678827
H     -3.464559589702     4.099043024289     1.043474089383
H     -1.532845227273     3.012469425149     2.174153611037
C      1.024597300597     2.700427935681     1.170428362797
H      2.860185955605     0.884973907619     0.388525759446
H      1.968011745356     3.181883053352     0.920044556258
C      0.977877551626     1.792903511322     2.249410366230
H      0.023578921087     1.395289051010     2.569730504065
C      2.094241935765     1.560678813303     3.176495728050
O      1.907957501760     0.809274295765     4.166718984383
O      3.393802688226     1.895237847637     2.755435589151
C      4.451666486743     1.560840620316     3.665870240607
H      5.424914323957     1.886352227835     3.238622387532
H      4.312168315525     2.077875028919     4.642768122641
H      4.498354849015     0.460606277605     3.835274637928
Pd     1.353574541785     0.653391322578     0.392490404218
C     -1.387086642854    -0.455032648653    -0.551889107623
O     -0.757813441976    -1.221566163194    -1.421029903871
O     -0.799088701660     0.272446406186     0.307314367350
C     -2.925574874735    -0.422225959632    -0.595110273790
H     -3.293013388963    -1.441655416567    -0.438186678872
C     -3.457442651925     0.107017225756    -1.909161326220
H     -4.566685576910     0.094690337103    -1.886149887478
H     -3.117640628447     1.154416982522    -2.049399750509
H     -3.102365519319    -0.520955519361    -2.751805089436
N     -3.414660922987     0.435440208586     0.475722311916
C     -3.636418542945    -0.114260211302     1.707534691696
O     -3.570272720191    -1.338841927653     1.955830802301
C     -4.000393877333     0.817788849301     2.797893912618
H     -4.971267932768     0.487272344388     3.202278531615
H     -3.216092816478     0.742589439390     3.568127089636
H     -4.077878648331     1.851233436966     2.418684893149
N      3.878265202303    -0.606398355392    -1.218646629792
C      5.057847535740    -1.021670475428    -1.776405440121
C      5.058953946705    -2.043076831527    -2.708290949977
C      3.878140393028    -2.650218339311    -3.081760776321
C      2.712313396997    -2.213489177163    -2.506035577324
C      2.771488511169    -1.164870449624    -1.557125263984
H      5.988000716991    -0.547278100599    -1.486003794132
H      5.991496297580    -2.364469833475    -3.142601911802
H      3.872255098028    -3.454757437297    -3.812605050849
H      1.764793061543    -2.648857657744    -2.752217704199
O      1.589089549989    -0.805042821802    -1.042769486790
H      0.345608672153    -1.149284509163    -1.347646889753

