# STO-3G

title

0 1
C      0.250158487460     3.355755303819     1.048980855682
C      0.624070958364     4.372374259940     0.134597273658
C     -0.340344779216     5.204533035320    -0.456350120925
C     -1.702560868185     5.033402240376    -0.140927131348
C     -2.089835973289     4.017304991728     0.756305727009
C     -1.124378517176     3.183603795044     1.344522494697
H     -3.032530255732    -0.424550931407    -1.387518156605
H      1.676592479178     4.507974665606    -0.108913964052
H     -0.032980256571     5.982006366464    -1.151656837739
H     -2.453605618391     5.680191910575    -0.588555192119
H     -3.137373811583     3.851471752297     0.988856049045
H     -1.453126562456     2.399114708363     2.020139759408
C      1.334291478890     2.577004492688     1.690345938295
H      2.747237240015     0.891371159680     0.462134432239
H      2.328928268089     2.938980459422     1.440112521935
C      1.203025907272     1.659203031768     2.753728594404
H      0.221181100598     1.403830341537     3.127047912112
C      2.322638987247     1.248080369492     3.613076875151
O      2.081084700070     0.526204811667     4.613397415320
O      3.626485771692     1.353045308849     3.095969488608
C      4.674904509019     0.851659161137     3.938162148366
H      5.656275696175     1.004113503714     3.438771660902
H      4.694025563971     1.392610576010     4.911886043109
H      4.547668353460    -0.239169392545     4.125947438509
Pd     1.355615730501     0.468031839253     0.916163867243
C     -1.391290246901    -0.900127567829     0.569994256492
O     -0.914654874152    -1.402746922261    -0.563015866367
O     -0.679726352740    -0.340714136893     1.458613090297
C     -2.923468411965    -0.891072383610     0.662506207879
H     -3.224849027917    -0.377993914006     1.577488437660
C     -3.545933223974    -2.267887251122     0.603824734955
H     -4.648630126178    -2.172959001006     0.682642623936
H     -3.300295958057    -2.744782414327    -0.367387679022
H     -3.170862154042    -2.894970898106     1.438035706836
N     -3.389406577759    -0.114054732400    -0.489812659346
C     -3.945416840393     1.117265571819    -0.318716681652
O     -4.182019906136     1.640140257481     0.796021953768
C     -4.277655596161     1.873167486995    -1.545862106549
H     -5.349818666804     2.124927411572    -1.498228077115
H     -3.664944517204     2.789714406998    -1.540120565296
H     -4.065370621131     1.273138515725    -2.447567280540
N      3.424724063611    -0.095382712550    -1.489494547657
C      4.416967243760    -0.159913924706    -2.430760942475
C      4.317490343153    -1.058173524148    -3.477198708837
C      3.223151965063    -1.891476351614    -3.582075501550
C      2.246885220020    -1.806463099867    -2.622304039864
C      2.402146476420    -0.870417456564    -1.572787463233
H      5.276822499908     0.495311967231    -2.353810800751
H      5.101194819152    -1.101599940153    -4.215722509307
H      3.137658759843    -2.597957082488    -4.403630893513
H      1.373853934151    -2.427276380626    -2.647577987759
O      1.408337130304    -0.855670316076    -0.678859974209
H      0.184030925327    -1.251250301306    -0.731124947059

