# STO-3G

title

0 1
C     -0.193083553921     3.749614857880     0.063833332299
C     -1.425003211836     3.888113936757     0.743082691008
C     -2.489385635838     4.595905524145     0.158128152982
C     -2.342462222124     5.173772836582    -1.118225128609
C     -1.115562734576     5.049204899552    -1.800287541887
C     -0.049470292270     4.352807967955    -1.208838643595
H     -3.913360740874     0.394401650576     0.342374416268
H     -1.530811825306     3.471952453456     1.741241050412
H     -3.424855895805     4.716091356776     0.700269260532
H     -3.165316806596     5.723635938257    -1.569053798773
H     -0.990696185347     5.496932203935    -2.783322206026
H      0.896926564758     4.258606388063    -1.738629615368
C      0.971574213106     3.061915058139     0.677010103661
H      2.775483521780     1.322098242320    -0.224352196063
H      1.932547090619     3.532105504346     0.471301294400
C      0.895922298996     2.085261281205     1.693677438159
H     -0.059982368243     1.679283218330     1.997425189213
C      2.015476343187     1.745899565008     2.585892139069
O      3.190825475367     1.951792990235     2.179675837150
O      1.769071059781     0.944313396571     3.710635380306
C      2.917641101451     0.569644915927     4.483755169472
H      2.590530268620    -0.047834593759     5.348332709065
H      3.625790044637    -0.036439483188     3.874523576099
H      3.441013058430     1.469999407663     4.877931163080
Pd     1.272065378900     1.089669213721    -0.263957025230
C     -1.204131668848    -0.709073171688    -0.378171357312
O     -0.438615006083    -1.653107772326    -0.899523027438
O     -0.904093664430     0.522046490635    -0.349818836202
C     -2.499272502847    -1.203297535080     0.297602487064
H     -2.175858575914    -1.895138815417     1.085470382338
C     -3.421955837108    -1.940837978833    -0.649491442906
H     -4.315213387540    -2.293223786520    -0.093232461699
H     -3.750997570286    -1.253830472290    -1.455598711270
H     -2.902871880904    -2.815204654574    -1.093305216457
N     -3.235644037459    -0.105050729251     0.904302691437
C     -2.782761097333     0.477772937532     2.047888199824
O     -1.736537809168     0.148180231567     2.652781119026
C     -3.642856225284     1.548159455576     2.594820200127
H     -4.624474652757     1.101723359290     2.824541273774
H     -3.170736589764     1.947318038494     3.508844706051
H     -3.745592578183     2.334720331329     1.828763360415
N      3.883158067365    -0.155902156328    -1.706411234548
C      5.108634960349    -0.551034135391    -2.171241761093
C      5.237832063190    -1.756410272875    -2.836654130592
C      4.138718917643    -2.564701512217    -3.039233338072
C      2.923757822799    -2.142171404293    -2.562616439566
C      2.850855106936    -0.900347873640    -1.886855436924
H      5.974387531931     0.081997528695    -2.014995307574
H      6.205945996074    -2.060574939172    -3.199435569095
H      4.233225863625    -3.511657077605    -3.564265292844
H      2.033147667830    -2.722411612902    -2.694451491603
O      1.629627671121    -0.563883244354    -1.458831125472
H      0.546547537647    -1.280399148979    -1.249367565329

