# STO-3G

title

0 1
C      0.222313244485     3.454343478550     0.504801572718
C     -1.120797513995     3.275971175797     0.916409676040
C     -2.165103030111     3.933006489640     0.244866198855
C     -1.890243234747     4.769836582172    -0.855670278740
C     -0.559992708271     4.940861086689    -1.286893770361
C      0.483784228316     4.289902958747    -0.609894775010
H     -2.889097831427    -0.705542236023    -1.053531966807
H     -1.365633014063     2.623386613957     1.749371948482
H     -3.185193646099     3.772762525108     0.580544827344
H     -2.702105718368     5.279341190072    -1.369429926140
H     -0.338555987463     5.579520364322    -2.138581220607
H      1.511524881993     4.425054067616    -0.942981731932
C      1.383255092675     2.867338488287     1.212402892409
H      2.871154113436     1.137979995680     0.165907928069
H      2.341262319015     3.240751269395     0.857049926195
C      1.355944158061     2.133422053892     2.416324239035
H      0.410822293545     1.893540656846     2.880202532780
C      2.539714111320     1.909884110042     3.256124744553
O      3.655767051811     1.801510771995     2.681183059301
O      2.353399781400     1.443520160982     4.566652083746
C      3.547400294455     1.135641246245     5.300263013846
H      3.273024636395     0.797500198342     6.323168923496
H      4.116956900905     0.315347142644     4.807126476385
H      4.197764054667     2.034717456153     5.395404278390
Pd     1.560019369870     0.667131313943     0.784623075054
C     -1.080330522597    -0.925233277163     0.816673337215
O     -0.641251657775    -1.525470579316    -0.283023258686
O     -0.357452913709    -0.218905660714     1.583848362527
C     -2.600200238940    -1.000412150257     1.018688574259
H     -2.871989324399    -0.431374293501     1.909742643315
C     -3.136068880535    -2.411195531636     1.112926395555
H     -4.234551676702    -2.374532786751     1.265013854510
H     -2.927678746401    -2.950710920434     0.166038341009
H     -2.665094705997    -2.945132504793     1.963090123557
N     -3.190952999898    -0.348483843944    -0.152576690689
C     -3.827083230152     0.849799085141    -0.046458438799
O     -4.050008411164     1.451468504152     1.029869898444
C     -4.263138293094     1.444565506991    -1.326209762026
H     -4.932549990517     0.723354441965    -1.823668915721
H     -4.793517635100     2.388007121369    -1.112029129938
H     -3.363371342329     1.637483729250    -1.936032856628
N      3.441315065773     0.024896473552    -1.746657066212
C      4.340000434673    -0.049670066663    -2.776660865883
C      4.254696778118    -1.082351856316    -3.692358973339
C      3.269054275059    -2.040433836583    -3.576098873981
C      2.386624613585    -1.942253449860    -2.530441634560
C      2.523140557182    -0.866125385693    -1.621795369914
H      5.113225283655     0.703569996034    -2.873465894344
H      4.963596941088    -1.132839598023    -4.502444909869
H      3.195112596776    -2.853257282010    -4.293827132087
H      1.601627889767    -2.656516731936    -2.384037213615
O      1.626083791872    -0.849567289533    -0.630195028743
H      0.430815642233    -1.324493064850    -0.545587809449

