# STO-3G

title

0 1
C      0.063105807180     3.684675389356     0.051610290188
C      0.920131866884     4.788861098508     0.279706698868
C      0.894609674979     5.901956623050    -0.574237755399
C      0.011703034723     5.937459655391    -1.673217253151
C     -0.845583948341     4.846278761704    -1.911063342620
C     -0.819389320369     3.733402151411    -1.054585509604
H     -3.181956297454    -0.827112206258    -0.071897111606
H      1.609539977913     4.782609101538     1.120318527269
H      1.558619611265     6.742418203816    -0.385709285073
H     -0.006146744838     6.802594297949    -2.331876082854
H     -1.527547702624     4.863821818643    -2.757852642978
H     -1.470575477011     2.882924017425    -1.248124642149
C      0.025874648057     2.486894430963     0.918425484381
H      2.795428935363     1.609519994125     0.728190177701
H     -0.825100846531     1.831452803261     0.749872757839
C      0.819018589621     2.261845956899     2.056052313140
H      1.551511536589     2.988550126538     2.365826767725
C      0.589716322745     1.179126182709     3.015223016313
O      0.812150031207     0.020570161116     2.571001564265
O      0.819388383026     1.459102654546     4.370337903203
C      0.543318345391     0.374444719711     5.267264590244
H      0.708882093411     0.710393506647     6.313290845535
H     -0.517884474977     0.045547059273     5.171838858589
H      1.217971502563    -0.489204133874     5.069486387571
Pd     1.500681191019     0.937220136466     0.318179716548
C     -0.391965364962    -1.352459673167     0.256531749087
O      0.648863674188    -2.164832299804     0.246558870677
O     -0.386612858756    -0.178770137267    -0.240639763368
C     -1.658301388120    -1.836252448940     0.996086349703
H     -1.388748667691    -1.892178797872     2.058087483091
C     -2.146814232072    -3.193056909434     0.538766373212
H     -3.040810274501    -3.480103729481     1.130045545396
H     -2.427730835101    -3.143889688760    -0.532607900382
H     -1.355024810104    -3.956784341977     0.683022186534
N     -2.741643881637    -0.873401079499     0.839091257873
C     -2.867648821732     0.194013097159     1.677110324990
O     -2.170342920933     0.405741145338     2.696409315187
C     -3.930857609671     1.155353615709     1.315805098895
H     -4.888501425569     0.608734297149     1.299535803241
H     -3.952243044391     1.959008369362     2.072393381213
H     -3.696836980590     1.570247293882     0.320127724445
N      2.486917070522     0.611306339672    -2.252250975950
C      2.781387064449     0.864927066300    -3.564728276881
C      3.420693877155    -0.097862850362    -4.326455013205
C      3.762419015677    -1.316418123349    -3.774804813565
C      3.457955235684    -1.542966087013    -2.456478684606
C      2.808321365085    -0.522560039958    -1.726307538813
H      2.510363470635     1.818293140411    -4.003405570384
H      3.646220093576     0.108974802868    -5.359603252836
H      4.262317732246    -2.076138169121    -4.369779080221
H      3.699334945873    -2.461437003786    -1.961292317850
O      2.539380911553    -0.790639759495    -0.443197720297
H      1.585753124712    -1.654493780985    -0.093152925482

