# STO-3G

title

0 1
C      1.987938141737     2.898218298853    -0.503786595069
C      3.314071119252     3.296651840867    -0.764432573022
C      3.561554675862     4.365467787530    -1.651898094885
C      2.490780950204     5.032904132525    -2.277630641263
C      1.168166116676     4.624037411423    -2.019950458822
C      0.912226942691     3.556507300333    -1.133023341942
H     -1.119066191148    -0.486192158260    -0.013302336214
H      4.150822039246     2.774448190917    -0.305608176619
H      4.586901483863     4.667059895238    -1.854829009310
H      2.684801327795     5.856103966061    -2.960931005561
H      0.335822024764     5.127395020570    -2.507276582212
H     -0.112372680766     3.235397799242    -0.960298781950
C      2.068250210503     2.535699199990     2.474508145044
H      2.417927469055     1.817817290313     3.211883843612
H      2.788638460415     3.256749912961     2.105050715959
C      0.698556677604     2.702573312845     2.220040997275
H      0.372718240501     3.519382517828     1.592477485081
C     -0.373148239209     2.065446205946     3.007216667654
O     -1.562758917431     2.380306619671     2.742480733254
O     -0.042298615053     1.390415376252     4.196152834519
C     -1.146030564372     0.880938743410     4.957421253671
H     -0.763735014287     0.378373796652     5.870974424156
H     -1.828625683389     1.702811876507     5.270754695913
H     -1.719443349300     0.131189208463     4.370335589354
Pd     1.640278289400     1.344367923009     0.692419580705
C      0.696278379643    -1.435351516109     1.370396664358
O      1.082053668307    -0.375695844756     1.956581690309
O      1.427435784542    -2.018357937848     0.412353873942
C     -0.749707701172    -1.906065962061     1.564900308596
H     -1.023604163436    -1.880085794279     2.624487901556
C     -1.060999545180    -3.264243611821     0.978542450222
H     -2.123025139351    -3.514401741969     1.180362074561
H     -0.907384244226    -3.233654234373    -0.120209703681
H     -0.407511772767    -4.037626989155     1.430601178037
N     -1.536193039044    -0.885360397402     0.849965602945
C     -2.660429271713    -0.378912666789     1.418837777936
O     -3.143914811178    -0.750945148055     2.515732317731
C     -3.350206787741     0.656357158766     0.622704740294
H     -3.657855380746     0.197639119354    -0.329951208965
H     -4.224995880205     1.009959088575     1.194757800272
H     -2.642843511581     1.485892637326     0.452791265996
N     -0.205382206981     0.026191768961    -1.640917943798
C     -1.093190515375    -0.033699980605    -2.681941851830
C     -0.634310621261    -0.137905614153    -3.982395475579
C      0.717778644895    -0.190103607734    -4.244675879348
C      1.587510157169    -0.137794973148    -3.187374739884
C      1.069033458274    -0.020867868955    -1.876903287329
H     -2.157414197125     0.003239779200    -2.482321813734
H     -1.343552495051    -0.181642942658    -4.791872863477
H      1.084426508049    -0.272284829828    -5.264234218910
H      2.649529463021    -0.167653268291    -3.317399697669
O      1.989414919213     0.014157594740    -0.904135605525
H      1.948685026720    -1.288634637174    -0.133332783126

