# STO-3G

title

0 1
C      2.155054546386     2.842967472935    -0.543415332312
C      3.513521910149     3.093249503681    -0.826268474321
C      3.866773528675     4.142047701310    -1.701175688264
C      2.869226425543     4.939649876984    -2.295309844306
C      1.513566956132     4.682417462323    -2.016105678844
C      1.153260290508     3.636955482485    -1.138866051637
H     -1.183972546082    -1.010804787605    -0.077988701730
H      4.293890976565     2.472367339924    -0.391064670774
H      4.916314363306     4.328206567603    -1.918247617783
H      3.144408829640     5.746995254136    -2.969379909342
H      0.734785276403     5.285598244967    -2.477709236619
H      0.099672412748     3.436204463035    -0.952218217206
C      2.102538365955     2.451856878562     2.423976295067
H      2.409984388177     1.717788008545     3.163883722274
H      2.848803925674     3.161253318187     2.084478346981
C      0.744162987793     2.650659996832     2.129612243131
H      0.452865755487     3.475364445234     1.495625690202
C     -0.363749140716     2.027912586594     2.876660742789
O     -1.539322179772     2.290929691883     2.511256621922
O     -0.096590415357     1.442731674039     4.127651086960
C     -1.238397521343     0.998109127111     4.872837896272
H     -0.903974857502     0.572938362980     5.842739990100
H     -1.933027587539     1.842527419079     5.082482193391
H     -1.783798573506     0.201921196117     4.323432802467
Pd     1.691376589591     1.288451321695     0.619594301400
C      0.738276552976    -1.503677522065     1.356605547688
O      1.080685985602    -0.389263431618     1.889663099039
O      1.391003304253    -2.023442641930     0.329960508061
C     -0.638287878009    -2.087069053302     1.703725993113
H     -0.883150364632    -1.915314592120     2.755306658283
C     -0.817907409568    -3.545029248743     1.349242353208
H     -1.841128485385    -3.865750476968     1.633974390179
H     -0.699251421422    -3.674223070993     0.253183778337
H     -0.072276460988    -4.165623805894     1.885980725857
N     -1.533821504279    -1.272956267895     0.863644857723
C     -2.645981540147    -0.709622655881     1.401408217339
O     -3.075206368913    -0.920238680912     2.562040645623
C     -3.388376741951     0.192931800225     0.498052990454
H     -3.712440580276    -0.397701305826    -0.373174425113
H     -4.254755352885     0.600176659483     1.046677965525
H     -2.706527868856     1.006946445701     0.196962001966
N     -0.405789038721    -0.355418494355    -1.748176075043
C     -1.348934963712    -0.195723746347    -2.727636756955
C     -1.034114396680     0.485483861329    -3.890252217709
C      0.232985093317     0.994817568645    -4.080692942875
C      1.165240047765     0.800220299807    -3.095861267499
C      0.790402093042     0.098447910296    -1.928151243752
H     -2.347113907270    -0.590762154546    -2.581375238139
H     -1.787647597619     0.612989988788    -4.649356818000
H      0.487097714357     1.532705183505    -4.989950434360
H      2.168060068400     1.168706761586    -3.176064663915
O      1.772134492184    -0.061776830425    -1.015975132137
H      1.732917906012    -1.199643113916    -0.348196862997

