# STO-3G

title

0 1
C      1.804322324998     1.767080470817     1.537745729556
C      2.933822052208     1.657775662491     0.698876240584
C      4.211948026203     1.941537013988     1.222302462612
C      4.359284401694     2.346319688626     2.562757227711
C      3.225197848913     2.471817561969     3.393884449590
C      1.948671012885     2.179109041606     2.881102534758
H      0.794756412107     1.579306433250     1.164205219010
H      2.831878777551     1.344835641327    -0.337361148232
H      5.085379311509     1.842833890465     0.582461991537
H      5.348745277772     2.567642679514     2.956734362351
H      3.337547705907     2.797094731380     4.425400045088
H      1.067609364252     2.262872702551     3.514210424428
C     -0.271907372856    -2.428887061099     1.420270424782
H      0.342507959243    -3.037625116992     2.084387716343
H     -0.437575140387    -2.935533659205     0.468360841130
C     -1.553838905911    -1.928577803239     2.083681530072
H     -2.179789464233    -2.758800359276     2.408926333394
C     -1.400655702702    -0.955895249911     3.199499675214
O     -0.403724379031    -0.174905886867     3.196217957516
O     -2.231616604847    -1.065496400817     4.330731840773
C     -1.992753062277    -0.116533156091     5.378847837910
H     -2.714458300497    -0.294120450981     6.204998400268
H     -0.962863294882    -0.228410049801     5.786754802909
H     -2.136947657610     0.923717183371     5.008973470270
Pd     0.767874353991    -0.738015827043     1.038393337772
C      1.137760889092    -0.625779328680    -1.796319964002
O      1.102950217468    -1.929270491967    -1.511726297450
O      2.146537938492     0.045222661794    -2.121645821065
C     -0.291890626852     0.014264011371    -1.666835872933
H     -0.881414275564    -0.409416314973    -2.492647230533
C     -0.293260804088     1.523066428480    -1.788159121027
H     -1.311588289064     1.921632225922    -1.608278305621
H      0.398343741301     1.970479419732    -1.051502284027
H      0.036700685917     1.819841469266    -2.805535549111
N     -0.833223131529    -0.360362087852    -0.331183063765
C     -2.036920946378    -0.766702621602    -0.105924297221
O     -2.468918625271    -1.319188607290     1.046373117466
C     -3.109612509415    -0.665429536454    -1.118058483147
H     -3.176383746667     0.378876659042    -1.461028553574
H     -2.883923654075    -1.364007894265    -1.939026123886
H     -4.071545994482    -0.958491595659    -0.656433692600
N      2.424849045353    -1.584032513536     1.886817736879
C      2.887694014118    -1.201637664832     3.115052318684
C      4.036649084024    -1.768397347623     3.624002912096
C      4.730984194752    -2.713809116275     2.903646597541
C      4.252105779894    -3.082093667838     1.674342155414
C      3.074399254408    -2.485270568986     1.165564791189
H      2.340669001379    -0.469921339469     3.695945722169
H      4.392745002851    -1.459449154741     4.592423302776
H      5.639031355292    -3.158533367178     3.301690055041
H      4.751515744081    -3.808534515724     1.065325479444
O      2.721196822171    -2.897299039756    -0.006163689735
H      1.907776668086    -2.388154111348    -0.824923443104

