# STO-3G

title

0 1
C      0.444385787298     0.674284726632     2.886810919994
C      0.442897452782     2.022323579103     3.302734567215
C      1.167486378007     2.407096980911     4.448417317186
C      1.897625670989     1.448513825565     5.179428315880
C      1.899698093360     0.102162522813     4.764263596979
C      1.171955005900    -0.284084338535     3.621006526928
H     -0.113525851099     0.373224289695     2.002912993100
H     -0.109636301969     2.759013622068     2.726723066142
H      1.162672112748     3.446578407332     4.769084642433
H      2.456366895019     1.745677105605     6.064334760082
H      2.457923577428    -0.642695186751     5.327657009844
H      1.171126063839    -1.326425294978     3.310773635828
C     -1.298664770818    -1.942034671411     1.488311851448
H     -1.254433204147    -1.863535095610     2.571298484130
H     -1.972329518735    -1.248302758062     0.994008130327
C     -0.570084460584    -2.826880994267     0.769047635081
H     -0.657837380838    -2.840718594900    -0.307654825793
C      0.369276577297    -3.807319155464     1.337875136637
O      0.603624918746    -3.810351352658     2.577327424945
O      1.072795163215    -4.651919785538     0.462473979938
C      2.000240500509    -5.559751504476     1.073138059732
H      2.486582896778    -6.173149560929     0.284152330079
H      2.794854899519    -5.004677576384     1.621275113463
H      1.476408366868    -6.247552303114     1.775073189704
Pd    -1.182540908064     0.949746941611    -0.607896683512
C      0.560723368063    -0.876952191960    -2.003868476111
O     -0.758673896158    -0.738384535767    -1.657590287608
O      0.965164822787    -1.780471197833    -2.743963436160
C      1.537030688593     0.180573427064    -1.350895341828
H      2.191598583995     0.549580038922    -2.152814269306
C      2.381155930395    -0.470773251680    -0.274173662435
H      3.090624183354     0.264644122808     0.154686354779
H      1.725558848178    -0.845894778001     0.538466243660
H      2.956152917830    -1.320105501952    -0.699439542561
N      0.745739068510     1.228210122107    -0.743324287517
C      0.811721342473     2.405214997168    -0.172822495593
O     -0.339195598126     2.880489916098     0.262936711499
C      2.057936033286     3.161272876385    -0.001236691464
H      2.238783157798     3.261459511117     1.083068305458
H      2.885582342287     2.619349405873    -0.486073251232
H      1.920564885907     4.153694732012    -0.464249695173
N     -3.215446577508     0.649308181089    -0.419866513390
C     -3.954180026319     1.617147417985     0.205599250959
C     -5.310709390129     1.438999428347     0.383211869672
C     -5.932134544290     0.294674660839    -0.068542998689
C     -5.169559753951    -0.655392337021    -0.696407146507
C     -3.786765764002    -0.438114222007    -0.864074206193
H     -3.469611159740     2.517555089336     0.566562233271
H     -5.885351019853     2.203698972763     0.880178908206
H     -7.000324200898     0.149263721778     0.069717749693
H     -5.590535702895    -1.567272628887    -1.071565691579
O     -3.153456102020    -1.418612458587    -1.471557427425
H     -2.146242282126    -1.296387883164    -1.652613267626

