# STO-3G

title

0 1
C      1.230507941757    -0.319716364985     2.305796593685
C      0.915327823835     0.437622749161     3.453159814792
C      1.658749548545     0.265169225391     4.637705849163
C      2.721572784298    -0.659539934092     4.677810870360
C      3.039905433779    -1.413240029190     3.530531279058
C      2.293953982152    -1.243921946347     2.347125807950
H      0.644719534645    -0.204224313320     1.397704391508
H      0.103439424242     1.158306787187     3.409606268234
H      1.412247271584     0.848506590270     5.522309254004
H      3.295999350733    -0.792329930983     5.592208586968
H      3.856754310214    -2.131612853374     3.557920914358
H      2.530433969306    -1.844657929130     1.470659835123
C     -0.187298265263    -2.431248591817    -0.708611102145
H      0.706502028274    -3.034052677445    -0.850887122910
H     -0.513203585054    -1.850356922909    -1.564525609054
C     -0.860468857132    -2.384208974855     0.464424524973
H     -1.734171462481    -1.752708891492     0.554559622989
C     -0.482111363119    -3.112647453175     1.685931243164
O      0.511267929829    -3.890360393356     1.675935853861
O     -1.203804152420    -2.861317439540     2.865685353607
C     -0.627729233712    -3.384100354839     4.070579438798
H     -1.274825419190    -3.118564541468     4.933509329210
H     -0.545171726475    -4.493575559720     4.023136405353
H      0.380567128594    -2.942955921890     4.246585126222
Pd    -1.188710814254     1.135056175589    -0.415311387257
C      0.555870314293     0.867643291495    -2.700806193360
O     -0.666662269442     0.433668520292    -2.252818532310
O      0.960769862575     0.662679090273    -3.850017964392
C      1.429699701589     1.624593363889    -1.620466715299
H      1.823663228327     2.528327127709    -2.106066874402
C      2.585673872028     0.756776226847    -1.166836831580
H      3.203859575886     1.298983096697    -0.423596818920
H      2.194281661432    -0.168524973702    -0.696109107000
H      3.222566369037     0.484141031497    -2.034438624758
N      0.598902976631     1.918701891139    -0.473010792515
C      0.547675866491     2.598903671128     0.645510902333
O     -0.563335369935     2.447702553732     1.340216894411
C      1.634222735858     3.457989480134     1.130467766181
H      1.997306476935     3.028417089126     2.080432037588
H      2.441976736730     3.486843158024     0.381928732596
H      1.221662966629     4.468267238525     1.295648460199
N     -3.074514409050     0.307610177940    -0.326944834633
C     -3.833695986882     0.553365596711     0.785289409669
C     -5.089430930096    -0.006681390016     0.897301878625
C     -5.590858655604    -0.808726971750    -0.105129075292
C     -4.813005325692    -1.030747563091    -1.211476286664
C     -3.535341141423    -0.440491356361    -1.293262619601
H     -3.441475339413     1.178740729880     1.579554413354
H     -5.678494885813     0.184950509588     1.779402602567
H     -6.578617811338    -1.254130742009    -0.020395682032
H     -5.143133271256    -1.644608314853    -2.026004093801
O     -2.873841651827    -0.730652064262    -2.392526763752
H     -1.943108786644    -0.307553182781    -2.518015834102

