# STO-3G

title

0 1
C      1.465707805819     2.860126810220    -0.346139308021
C      2.802019758998     2.612833301039    -0.728200887707
C      3.632144605305     3.685124542666    -1.114307602639
C      3.135120813612     5.003542452410    -1.123789178300
C      1.802706452901     5.245827730721    -0.741178363469
C      0.964683554135     4.177690756583    -0.352423547322
H     -0.544232843526    -1.003609176197    -0.344246661337
H      3.197493712514     1.599385733002    -0.725927231995
H      4.662781344308     3.487264985150    -1.401930124939
H      3.778879552062     5.829202645046    -1.417390802146
H      1.410792406717     6.260888840595    -0.734202755531
H     -0.060236232704     4.389905658783    -0.054640565659
C      1.247436376432     1.479717716522     2.117945413325
H      1.905813684782     2.339860571216     2.116583877504
H      1.721951798522     0.502688344341     2.114925172789
C     -0.122398776969     1.600493351336     2.343744386625
H     -0.695708812093     0.700113882606     2.502721198897
C     -0.830292755850     2.847530870722     2.677463663094
O     -0.240915151484     3.953373833247     2.563477352711
O     -2.213880534164     2.781450148696     2.912005305214
C     -2.860745444307     4.028413281363     3.204408337297
H     -3.942819323548     3.849413797758     3.385449867545
H     -2.428904490301     4.493246804428     4.120086814252
H     -2.764044246580     4.736550928343     2.350182705519
Pd     0.250631167378     1.331864065072     0.076009283286
C      0.939710416476    -2.019627544544     2.120940624139
O      1.617095401581    -1.593674626060     1.009082775675
O      1.368203625671    -1.696243715265     3.242070676531
C     -0.372407990076    -2.877738500781     2.020443468080
H     -0.386801890394    -3.407547112053     2.978586376762
C     -0.379446304754    -3.916346026192     0.915106834601
H     -1.210322563272    -4.630505460557     1.092422712772
H     -0.552244178498    -3.434116790013    -0.066594274239
H      0.579379740151    -4.473774652606     0.898197494579
N     -1.639550814860    -2.133743357626     1.958214202809
C     -1.925749841135    -1.109574334439     1.256473221631
O     -1.135577249293    -0.438498321985     0.340630710608
C     -3.270428820628    -0.542383822562     1.410241330161
H     -3.836379498824    -1.139364620720     2.149465727216
H     -3.170512266596     0.497986150066     1.757814557217
H     -3.769550236357    -0.581530073425     0.427228584915
N      0.388322780451     0.761758478781    -1.966018932007
C      0.513644996792     1.659291078461    -2.994828210569
C      0.869251770311     1.225487261990    -4.255712131376
C      1.091518719060    -0.110548537949    -4.501657621687
C      0.936263453758    -0.996563144923    -3.469981289253
C      0.561834631740    -0.523059287162    -2.191557912078
H      0.336098695216     2.713928909413    -2.822932139019
H      0.974247341597     1.944121264670    -5.051694139648
H      1.370783501920    -0.454869910688    -5.493818187514
H      1.066576290866    -2.051472721785    -3.599580401228
O      0.390255611663    -1.438984926369    -1.273111486457
H      1.212366343285    -1.702231676011     0.092868478108

