# STO-3G

title

0 1
C      0.100576729895     2.067196447643    -1.327679452723
C      0.024056853332     3.466288871349    -1.497890015213
C     -0.743841998174     4.000090303931    -2.554842214401
C     -1.419237675512     3.142136555725    -3.444420820934
C     -1.323966930889     1.747005734161    -3.277565136467
C     -0.557586587624     1.203708858175    -2.224889377973
H     -0.362403548651     0.000077573276     1.418705758825
H      0.536534733951     4.142213532831    -0.814781179157
H     -0.811151812379     5.079140713713    -2.679058647678
H     -2.010494543626     3.554616696438    -4.258607541492
H     -1.840631931003     1.076555617542    -3.960877837124
H     -0.484522131260     0.123446262562    -2.120719735215
C      2.265462671084     0.064175870217     2.105981153814
H      1.514300367975    -0.578596681632     2.556603323843
H      2.964953426479    -0.434335353013     1.444710444865
C      2.367420842477     1.399581418094     2.388423932164
H      3.156411162257     1.987831084776     1.941044853725
C      1.521584451334     2.110249050742     3.362000697543
O      1.534014967556     3.369869033724     3.354778763833
O      0.746472026321     1.387730703604     4.286430453888
C     -0.087061001338     2.167898681216     5.153753222371
H     -0.650429908730     1.488364436148     5.829012275192
H      0.525942287974     2.853381766277     5.781710646011
H     -0.823530966885     2.759604074012     4.565064938527
Pd     1.107697508553     1.390523892121     0.253003176739
C     -1.342981098306    -1.789032308394     0.268129529929
O     -0.144977167443    -1.248551393742     0.676702702912
O     -1.451489343855    -2.547925488041    -0.703779049036
C     -2.512661476983    -1.303763016281     1.190438868767
H     -2.196938982173    -1.542568957916     2.221182057830
C     -3.801429573805    -2.031686404987     0.899521722973
H     -4.578354597585    -1.718477205892     1.627308993281
H     -4.144148732133    -1.767486599514    -0.122248327225
H     -3.653885194017    -3.129084779934     0.970903106998
N     -2.828345006649     0.136476075607     1.094917958478
C     -2.011785521182     1.096129677434     1.281999992248
O     -0.649925619672     0.998983354293     1.573398009485
C     -2.525048738978     2.466515235612     1.233204163152
H     -3.615833246514     2.435292568927     1.054631616338
H     -2.307672256220     2.943188303209     2.202099238518
H     -2.026060451820     2.997026819758     0.407078346059
N      2.555711719652     0.783818338236    -1.035775593597
C      3.345144626863     1.636776276674    -1.756037439659
C      4.268798867704     1.133116355641    -2.645369300710
C      4.397591771099    -0.225743385776    -2.828714252673
C      3.582494274704    -1.062321780395    -2.113094346193
C      2.628054718013    -0.526274351317    -1.218687264625
H      3.256519818041     2.707177431171    -1.610849727138
H      4.891365978361     1.811759737534    -3.205188067871
H      5.123704958601    -0.625364685025    -3.531774678912
H      3.620724865334    -2.127428108600    -2.229295942892
O      1.887709543357    -1.399555968316    -0.621545691378
H      0.818405908720    -1.334727264770     0.032894118920

