# STO-3G

title

0 1
C      0.213176445415     2.588214568082    -1.905359048096
C      1.510811023085     2.897804926338    -2.350645151608
C      1.754453366754     4.160701159406    -2.930944900403
C      0.711951511517     5.097566858354    -3.073576781197
C     -0.586389637893     4.777173166012    -2.632337353650
C     -0.839752220399     3.514153832421    -2.057673834918
H     -0.436070440995    -1.018011839839     0.740110778110
H      2.327761472799     2.191307975294    -2.233129136888
H      2.760522684441     4.410364549851    -3.260576030186
H      0.909384347088     6.067854448965    -3.522241024647
H     -1.397256989941     5.493844817723    -2.737827141515
H     -1.853180539447     3.270918389869    -1.725095836842
C      2.483023493961     1.469305890843     2.380112806650
H      2.408835351028     1.537714635901     3.460907166317
H      3.370735002398     0.987378649315     1.979932076011
C      1.506071922773     1.871906721727     1.541451892249
H      1.621598684391     1.713751066323     0.478238259497
C      0.211942063393     2.423844826229     1.959392055683
O     -0.714595135485     2.478866198676     1.100099790373
O      0.004054626610     2.804105007327     3.296807659479
C     -1.351074034688     3.079248980263     3.673541697736
H     -1.376360500864     3.395668509184     4.738453284739
H     -1.780114015932     3.900357935775     3.056416620116
H     -1.976532947730     2.163218809240     3.579315069777
Pd    -0.425634535403     1.021282648951    -0.891898894997
C      0.590824423086    -1.279437154298     2.779127191962
O      0.691479208718    -1.219727103856     1.425216445109
O      1.564015336550    -1.360649064155     3.541987520287
C     -0.879305618405    -1.241368301354     3.327904161829
H     -0.769646361504    -0.859008055874     4.348545846782
C     -1.451910367634    -2.642348267985     3.425968944805
H     -2.436939948642    -2.609170423957     3.936723160082
H     -1.590126035789    -3.052205408099     2.404489296660
H     -0.769012739083    -3.301106214280     4.002005325533
N     -1.908431706369    -0.422612041931     2.675308222723
C     -2.113312975480    -0.185491696993     1.438548549795
O     -1.346628660502    -0.580691927450     0.348098683327
C     -3.335417433768     0.551426331815     1.097522054160
H     -4.187274313057    -0.002960243810     1.527687807213
H     -3.262208375331     1.551785757628     1.553603810976
H     -3.436183444391     0.625095254630     0.001593264857
N      0.902039388849    -0.184050438855    -1.921226480316
C      0.643406113460    -0.259152023068    -3.263492938840
C      1.580456412130    -0.791972199076    -4.120605841439
C      2.778029406781    -1.267186570059    -3.639324213529
C      3.009525189169    -1.204792918497    -2.291894638617
C      2.029548858106    -0.665241285449    -1.424226860313
H     -0.292283769092     0.123184751224    -3.654559714237
H      1.370722618182    -0.833867165227    -5.176768279177
H      3.520195949281    -1.688670715184    -4.312101410111
H      3.916024392400    -1.575598170473    -1.856376149480
O      2.358353331331    -0.687255989935    -0.173766737612
H      1.608608898012    -0.914274933607     0.728998579624

