# STO-3G

title

0 1
C      2.353524083407    -0.377886707274    -0.451112390189
C      3.018828934842    -1.620355571726    -0.415823727948
C      4.338340144581    -1.688681002539     0.078464396410
C      4.992201398995    -0.526599127712     0.534117350991
C      4.322450387973     0.711551473957     0.495995761201
C      3.005516637119     0.791729041242    -0.004817590841
H     -0.042502732683    -1.541093221508     1.222234180001
H      2.516116833936    -2.524591768728    -0.746304448115
H      4.849054938041    -2.648898133866     0.108604369547
H      6.009132032558    -0.585517621713     0.914680572692
H      4.816278320147     1.614400621497     0.849289762051
H      2.494209311050     1.752135602727    -0.041097067605
C      0.511336360989    -0.246114740947     2.686111454063
H      1.340953430481     0.066031715050     2.055513933080
H      0.748295159618    -0.938847494627     3.487839111125
C     -0.753672149813     0.208957783009     2.500249067939
H     -1.558378546185    -0.110657051827     3.144903384586
C     -1.155446317384     1.144532712014     1.440197505656
O     -0.342898371623     1.426810592318     0.512728757727
O     -2.386945177033     1.813062146396     1.570213478690
C     -2.653267515928     2.850169944045     0.615265652353
H     -3.625208339954     3.331042616273     0.855943505601
H     -1.860785043937     3.631654478718     0.641572828266
H     -2.730056326861     2.438869888659    -0.412855425677
Pd     0.471863601215    -0.283300206146    -1.080272808919
C     -3.158643944428    -0.259145688637    -1.386028249969
O     -1.854066769249     0.044311452948    -1.546707822890
O     -4.094590503643     0.361684542440    -1.927578381836
C     -3.442523473036    -1.503054887293    -0.458815562355
H     -3.776536277855    -2.315223303762    -1.131576019463
C     -4.532591385235    -1.221141974328     0.544567988318
H     -4.698098065866    -2.120415173271     1.172582719879
H     -4.219038789463    -0.382535595340     1.201543494359
H     -5.477570716927    -0.954085964869     0.027781740908
N     -2.226454193265    -1.764080334716     0.288706868413
C     -1.194421190477    -2.303086559883    -0.202394314111
O      0.058160432986    -2.014250189551     0.345565759334
C     -1.156466224942    -3.146883320400    -1.412042785557
H     -1.826686380165    -4.006849007208    -1.241354516015
H     -1.488096011615    -2.549532724503    -2.277441833120
H     -0.123845080101    -3.507078577757    -1.571357681675
N      0.997703013611     1.060004649346    -2.567894591707
C      2.240065554847     1.024621559702    -3.148189677505
C      2.637384486161     2.029482034300    -4.004668306057
C      1.795618164105     3.077501569364    -4.294754306037
C      0.547143587681     3.081072778046    -3.736431537485
C      0.157412840380     2.033851011920    -2.870285549724
H      2.916922397031     0.203485815127    -2.947629488318
H      3.620950923792     1.992484868850    -4.443320553454
H      2.107721851754     3.873504366805    -4.965552807173
H     -0.165946391844     3.853347998653    -3.945089960270
O     -1.069650762965     2.110953150411    -2.457367859089
H     -1.522142267455     1.148581647279    -2.009058938553

