# STO-3G

title

0 1
C     -0.686631250875     1.993444000354    -0.554171749393
C     -0.959779667299     3.367032512114    -0.380390163189
C     -1.602200594729     4.087399748378    -1.410320872818
C     -1.955145938575     3.442688032675    -2.611797145712
C     -1.660800085918     2.075842811641    -2.784781612716
C     -1.016612429338     1.348656610813    -1.761992674819
H     -1.496688083592    -0.396199153083     2.229582856362
H     -0.694384237929     3.873811420226     0.546412271152
H     -1.823105449943     5.143908856844    -1.271303748214
H     -2.449934661193     3.998780236527    -3.404820481808
H     -1.925225335800     1.573707539997    -3.713173074439
H     -0.777789701654     0.298070632914    -1.906087279645
C      0.785635636644     0.073947842577     3.204441660254
H      0.309846767965     0.874987298534     3.764870122235
H      0.276237048231    -0.883077512723     3.154515158349
C      2.019159040229     0.196205702959     2.629204733026
H      2.452910048108    -0.654251682201     2.122488950746
C      2.850247777262     1.407964299716     2.669054674900
O      2.294362144083     2.526773499136     2.846395418880
O      4.192325857380     1.317620947762     2.263440883721
C      4.921274526490     2.551618461037     2.215274128877
H      5.964658646222     2.347809625074     1.891352861646
H      4.463639189971     3.253496346530     1.482525141478
H      4.955256394740     3.031227490078     3.219670269583
Pd     0.196874122623     1.029430836845     0.953506429798
C     -1.363935116256    -1.929541191644     0.595756545827
O     -0.495141284710    -1.864172829609    -0.380481586591
O     -1.051892497010    -1.980323673462     1.837839948568
C     -2.880142982749    -1.782033829462     0.245866848468
H     -3.410205098866    -2.514710332702     0.871449287141
C     -3.211436565241    -2.060553278892    -1.201735644712
H     -4.312905796341    -2.052233756250    -1.338318085613
H     -2.772262098286    -1.266455030502    -1.837876206578
H     -2.812324334483    -3.049426894398    -1.507088953554
N     -3.453204879885    -0.467197807938     0.550833683687
C     -2.985510412014     0.487503236767     1.239722887954
O     -1.755024937610     0.539515826400     1.951146433074
C     -3.789916780154     1.703660510189     1.375347563686
H     -4.735066880501     1.576487872514     0.815944149348
H     -3.995397872042     1.850629294278     2.447785980372
H     -3.219472435356     2.549841251145     0.963251034715
N      1.865468618960     1.007562858458    -0.230734425159
C      2.458496381837     2.168051363421    -0.649740716178
C      3.598722668980     2.119231488725    -1.422214178943
C      4.147070209611     0.909529879946    -1.784986929121
C      3.525091561959    -0.239547769808    -1.374615503866
C      2.346936197244    -0.166029864006    -0.596434514680
H      2.046625289479     3.124886001813    -0.351092830572
H      4.062750067599     3.037652018311    -1.740898756943
H      5.049447288787     0.867089239017    -2.388927672324
H      3.899495805782    -1.210197676271    -1.630911279940
O      1.830548989359    -1.305751767068    -0.265407201603
H      0.634625060670    -1.613688293415    -0.209965863217

