# STO-3G

title

0 1
C      2.768860324189    -2.735262773617     1.548548051050
C      3.602068392452    -2.883631095547     0.419661224330
C      3.770638187013    -4.152576431111    -0.169526148616
C      3.112167201888    -5.276654358371     0.370272535382
C      2.293910879470    -5.133037948370     1.508901013385
C      2.126400640012    -3.863584033645     2.099395146371
H      2.646653628788    -1.747932864726     1.982353994719
H      4.118017698965    -2.014020655412     0.019887846810
H      4.418641030710    -4.266886926943    -1.035926052212
H      3.249547956194    -6.257267009075    -0.080674527542
H      1.802773235549    -6.003099230237     1.940363406968
H      1.513627952412    -3.765189380908     2.994681884230
C     -0.754335055548    -1.435162056547     2.541207870201
H     -1.758227255700    -1.079839921671     2.320885849547
H     -0.588422481802    -2.501500081170     2.439417045325
C      0.218507261339    -0.615055101920     3.068362244615
H      1.176328146506    -1.017139759793     3.354194823238
C      0.031326727003     0.811575902200     3.386005422866
O     -0.969951498154     1.425007603286     2.927067744803
O      0.965707202278     1.451555407511     4.218298567049
C      0.766842071222     2.857630018268     4.417407793338
H      1.566181782649     3.250830360243     5.081575745669
H      0.821611745865     3.403375247114     3.448197636604
H     -0.217139650551     3.054492304229     4.900215717357
Pd     0.290176071689    -0.542515712757     0.607564020168
C      2.720044423630     0.762485537542     0.165053899462
O      1.901336406056     0.523669961853     1.218395604630
O      3.962380163848     0.765024356839     0.247455713275
C      1.975716796727     1.101375775566    -1.165419449613
H      2.598402498983     0.738906891443    -1.993569195438
C      1.823067946489     2.613636512811    -1.259531514949
H      1.467813056952     2.925308418006    -2.258823160668
H      1.102788013528     2.960382693496    -0.487808539506
H      2.802265800740     3.108253127291    -1.084211197325
N      0.637961068591     0.458618552788    -1.124095352872
C     -0.425699338746     0.695231645494    -1.888227149477
O     -1.644651685500     0.498721979884    -1.540224449782
C     -0.247115858604     1.141363106944    -3.288169303436
H     -0.635164964414     2.170801754743    -3.368511097692
H      0.808578978745     1.076239700885    -3.591647600840
H     -0.842865065335     0.468711645305    -3.931162122178
N     -0.852291108569    -2.083608012537    -0.216670852700
C     -0.150504815634    -3.228884658552    -0.479914045385
C     -0.824135767850    -4.418929622867    -0.666947586641
C     -2.201686040452    -4.460127597499    -0.620583915783
C     -2.881175982138    -3.289083824413    -0.405558335916
C     -2.157118695220    -2.091161544105    -0.230695262195
H      0.929025839586    -3.202057650549    -0.526245101209
H     -0.260767691461    -5.318993766545    -0.851938797912
H     -2.736083584290    -5.394654610242    -0.769075694815
H     -3.951575858234    -3.240343595939    -0.391410790607
O     -2.863626725533    -0.995535648366    -0.091570135150
H     -2.312899871933    -0.182203066452    -0.564121113536

