# STO-3G

title

0 1
C     -1.584441311806    -2.485542133715     0.221515689078
C     -1.991969356351    -3.593271569767    -0.548350637189
C     -2.717415698586    -4.639486912311     0.054825082926
C     -3.034710619193    -4.580780347022     1.426728744139
C     -2.625602449418    -3.474192313317     2.197006875390
C     -1.900965256993    -2.427023601813     1.594267632292
H     -1.021658048312    -1.682091952832    -0.248809633909
H     -1.737739102154    -3.632794341184    -1.604359072061
H     -3.028493303363    -5.495455264336    -0.539563884464
H     -3.592186756104    -5.390524573405     1.891889476156
H     -2.865248855604    -3.427985745874     3.256839525494
H     -1.581419221447    -1.578701759746     2.199200384003
C     -2.071502879983     1.040889349211    -0.044154804172
H     -2.189018110124     0.118247700212     0.516661183760
H     -2.778485673067     1.160722598858    -0.853965686175
C     -1.268484738571     2.078380930475     0.399905083085
H     -1.227957039456     3.023396759893    -0.115769813679
C     -0.569258775561     2.046370634756     1.701012068691
O     -0.666028814237     1.023178435463     2.435126405108
O      0.067458779234     3.211953374947     2.164309995289
C      0.676369174462     3.121771570893     3.459556185744
H      1.151652503807     4.094449755318     3.710241404410
H     -0.086506550901     2.897268253309     4.239295226255
H      1.462009110225     2.333265883954     3.472958260331
Pd    -0.078565543116     0.629702759948    -1.192664709857
C      2.208684854520    -1.195537982623    -1.011813289769
O      1.182439809447    -0.859241800197    -1.854722270303
O      2.939572951786    -2.175847495190    -1.201782632878
C      2.350684033753    -0.216703860790     0.198318641461
H      3.425313429789    -0.006745507306     0.289587039970
C      1.891460998352    -0.857482434598     1.487791258776
H      2.064163166008    -0.158978326565     2.332070977984
H      0.806737481623    -1.075050896394     1.434748635548
H      2.448254273538    -1.799825795640     1.673748544146
N      1.534515662424     0.980970675823    -0.025945655276
C      1.954448436136     2.251892270246    -0.213604584356
O      1.209505782634     3.136737433231    -0.740704736822
C      3.285850013533     2.648019606175     0.298191289954
H      3.381313906385     3.744338727855     0.195876661181
H      3.340522694151     2.366258174903     1.362773013353
H      4.065208362168     2.151640616880    -0.303863494288
N     -1.327291719265     0.345829793785    -2.849442657717
C     -2.006374766182     1.421259026614    -3.359296233495
C     -2.850310576664     1.257675014162    -4.438019722745
C     -3.000556069377     0.021860945326    -5.028651219860
C     -2.270779074417    -1.026864737513    -4.534909598535
C     -1.400800494147    -0.816804665309    -3.444753733523
H     -1.906151155745     2.394456981901    -2.891908878803
H     -3.395514526404     2.105863061608    -4.819395395592
H     -3.664924800912    -0.112878533971    -5.878225226903
H     -2.309037737695    -2.004332243583    -4.973247359702
O     -0.680691796580    -1.861125390689    -3.105009791779
H      0.184020435206    -1.623298160580    -2.552762807501

