# STO-3G

title

0 1
C     -3.018379395551    -0.785804262420     0.511656540428
C     -4.038083871998    -0.646966752967     1.475087230908
C     -4.462003557285    -1.770940803666     2.211255390623
C     -3.866549769359    -3.027456719591     1.984720431019
C     -2.847308839437    -3.162612754827     1.020498372993
C     -2.420628171948    -2.042626573738     0.281520661594
H     -2.685411539582     0.068454552296    -0.076180465772
H     -4.497610348525     0.322373080724     1.654537684543
H     -5.248982826155    -1.666544883715     2.954662852510
H     -4.194614377170    -3.893964487158     2.554578028666
H     -2.386077530031    -4.131376729776     0.845640446818
H     -1.633395200166    -2.144611824300    -0.459750641920
C     -1.823338624944     3.079583779986    -2.408108536499
H     -1.068181924539     3.119305198862    -3.187712468158
H     -2.121935408822     4.018687956495    -1.959342066806
C     -2.553076959089     1.931454988092    -2.162506496285
H     -3.372660562465     1.951204502285    -1.454696234368
C     -2.448556600619     0.702813054461    -2.974905686757
O     -1.822963611185     0.726945822450    -4.068847460643
O     -3.237731017502    -0.399839729739    -2.611993676660
C     -2.996074845351    -1.605212230946    -3.350183607683
H     -3.647560519616    -2.414386010988    -2.955488595634
H     -3.228444781638    -1.463233389279    -4.429949543586
H     -1.935160355612    -1.928841938777    -3.238822445307
Pd    -0.681157378279     2.141471739896    -0.603159969864
C      0.597666808737    -0.419542739724    -0.691567189445
O     -0.110382140362     0.438045643585    -1.467524079758
O      0.833699126941    -1.591517839033    -1.039820140002
C      1.079183163869     0.177212553943     0.664641397391
H      2.151376007983    -0.057395240299     0.716048395289
C      0.390475602749    -0.477229522597     1.845002143270
H      0.845374515990    -0.128443012048     2.792740128078
H     -0.682133160745    -0.208208861725     1.857619093479
H      0.489044847397    -1.581923134756     1.786639313969
N      0.791421627135     1.623383121701     0.691318361569
C      1.599386133026     2.609434031206     1.143040503903
O      1.415585829138     3.841439005798     0.922346965111
C      2.778527056203     2.235529206248     1.964836928948
H      2.436624420270     1.638884811542     2.824915905497
H      3.493720381691     1.687746102173     1.331285804612
H      3.259643996422     3.161680960797     2.330918062717
N     -1.413890072903     3.785781425080     0.466920745092
C     -0.935128796849     5.059084051036     0.285224287179
C     -1.494417080354     6.110660751023     0.986589251453
C     -2.498841932398     5.885975363843     1.902758301968
C     -2.935516309263     4.599094568113     2.084211021540
C     -2.341829959951     3.563287339512     1.339078503758
H     -0.160194653341     5.249502845597    -0.448677417253
H     -1.119442095614     7.108494950722     0.828415293923
H     -2.930518027020     6.707212049317     2.468754211647
H     -3.703611721769     4.351951845642     2.789364856543
O     -2.825812157289     2.346778641491     1.605084950100
H     -2.317405821270     1.633950721894     1.146722831965

