# STO-3G

title

0 1
C     -0.239722850514     1.233943376454     1.356703377665
C      0.579096684045     0.334543548326     2.079972599294
C      1.300955552986     0.781735529217     3.203772859623
C      1.206795985404     2.127483897077     3.614112030358
C      0.393150430060     3.028739088248     2.898790492594
C     -0.330129076057     2.580828866143     1.775605866817
H     -0.857117808895     0.875577371609     0.534510825822
H      0.657260089359    -0.700815033795     1.759646077376
H      1.932100936139     0.087252361941     3.752401285370
H      1.765146943904     2.471194121070     4.481697456379
H      0.321288805961     4.067314504504     3.212114744351
H     -0.967025072270     3.269848119886     1.223889827935
C     -1.008553007624     0.724088903447    -2.742374625550
H     -1.702628187766     1.029644175214    -1.966232756283
H     -1.308120394682    -0.142200444440    -3.321220672106
C      0.132359427823     1.431493910263    -3.061191248579
H      0.754187473611     1.125145399030    -3.888942655813
C      0.461646745743     2.755583949544    -2.503954936071
O     -0.195702500482     3.205585511900    -1.528053701354
O      1.547733875960     3.463268468792    -3.046250844673
C      1.874156730819     4.700486212707    -2.397026391091
H      2.748954794828     5.162496854610    -2.902604169915
H      1.021047324367     5.414076631576    -2.451664485511
H      2.143155707160     4.529318844236    -1.329251159579
Pd     0.672482676184    -0.413975264145    -1.536346180671
C      1.120245724344    -3.140134264027    -0.793287312134
O      1.704799349240    -1.919141977548    -0.684786685941
O      1.695160243421    -4.195568447429    -0.471511773626
C     -0.321727188677    -3.095777267605    -1.382933133929
H     -0.892426137666    -3.871530438323    -0.856394029922
C     -0.325942819045    -3.425044577373    -2.860640733498
H     -1.367111574543    -3.405091436805    -3.243308524207
H      0.273496720374    -2.674516569632    -3.414274181051
H      0.103137919878    -4.435473617559    -3.028861447647
N     -0.855221361474    -1.730624370795    -1.227874287180
C     -2.025723683822    -1.373701819719    -0.665496563081
O     -2.383316143236    -0.173922686923    -0.449347041260
C     -2.992922440487    -2.439307416357    -0.303969046266
H     -3.921766182352    -1.959008723751     0.055818679195
H     -3.211890443488    -3.036033809206    -1.204514455005
H     -2.565466183547    -3.048483461423     0.510777218232
N      2.550520948168     0.484522977341    -1.681078674823
C      3.390958704523    -0.217295566860    -2.505514743647
C      4.716504030822     0.149743245211    -2.617789041168
C      5.211670730364     1.204758431335    -1.883690843485
C      4.357166590465     1.866189942459    -1.041844883707
C      3.012970675201     1.450051395098    -0.952231578748
H      3.005354419083    -1.042909022694    -3.092267768720
H      5.367361550602    -0.402229320755    -3.275578515601
H      6.255507811458     1.496777661972    -1.961191795329
H      4.682092374492     2.678974064641    -0.424143580721
O      2.303692269436     2.147567672864    -0.078516804232
H      1.409976536900     1.797057164724     0.190208053045

