# STO-3G

title

0 1
C      3.328556200436     1.075120582147    -1.688937978075
C      4.353968936789     0.962780211767    -0.729269917293
C      5.307066786095     1.990868348629    -0.591211482223
C      5.237730650844     3.130712947197    -1.417207661372
C      4.219202815002     3.240004398877    -2.385287171469
C      3.266704752154     2.211097102213    -2.521444414440
H      2.594985921495     0.280067267424    -1.800187206429
H      4.409078114450     0.075946919783    -0.101436355468
H      6.099116445583     1.902201907852     0.148255966731
H      5.974763875890     3.923320464602    -1.313100478140
H      4.171474086696     4.113835583715    -3.030565833495
H      2.485583888255     2.289068492578    -3.276618674539
C      0.759195525805     2.190263356030     0.433541751820
H      1.357462786593     1.973132495836    -0.444309545807
H      0.204141767846     3.122751120505     0.426069624982
C      0.856041844944     1.445850691743     1.588108344238
H      0.352160572174     1.752892159828     2.489510009288
C      1.643779966714     0.211516920753     1.717682459078
O      1.735602924661    -0.550541695320     0.714017951313
O      2.049842129008    -0.207346516457     2.994911501945
C      2.536923425695    -1.552532759161     3.090802064507
H      2.825393934249    -1.763087734380     4.143267070020
H      1.742279856158    -2.278382699526     2.802878365969
H      3.432596494846    -1.699335460010     2.446152846245
Pd    -0.935818609557     0.527532732527     0.205625465583
C     -1.745170048591    -1.511910124503     2.057281968843
O     -1.127978580415    -0.300957342099     2.035468195058
O     -1.813806858680    -2.212791375008     3.081883915728
C     -2.354824806210    -1.941179424986     0.685652121784
H     -3.333707333949    -2.381232641442     0.914584799321
C     -1.506581659374    -2.994557868006     0.004794379699
H     -1.918500478506    -3.217556206806    -1.000789517805
H     -0.465449395933    -2.633177886358    -0.103472576613
H     -1.500494638229    -3.925505160578     0.609758613003
N     -2.433646181739    -0.758305415099    -0.186782791444
C     -3.506808401569    -0.292272364285    -0.860781162805
O     -3.603093630035     0.877570924086    -1.335187910176
C     -4.636995763301    -1.224658673041    -1.096441299400
H     -5.353078986124    -0.734311266268    -1.780793675140
H     -4.239791467164    -2.138279267283    -1.568371023699
H     -5.137876104249    -1.433664824707    -0.136767612215
N     -0.822071028010     1.236455520016    -1.760964284439
C     -1.466781437029     2.379993850980    -2.154974960299
C     -1.374630682714     2.802297619736    -3.468510568345
C     -0.680598442367     2.055378221825    -4.396293195815
C     -0.066060341633     0.904311981476    -3.974861619277
C     -0.171461154353     0.529310972425    -2.622399439104
H     -2.017201690827     2.969387584805    -1.430590578997
H     -1.881336400883     3.704254560008    -3.769188503313
H     -0.623087741095     2.370607141847    -5.434657063744
H      0.486252758402     0.272641039945    -4.641346998480
O      0.465926719568    -0.603893918535    -2.307259187122
H      0.361609274206    -0.792070355984    -1.338319620662

