# STO-3G

title

0 1
C     -1.225391848023     1.871064412313     2.721127601227
C     -0.470350924105     1.700644276680     3.900933981156
C     -0.776854200601     2.464117001204     5.044791935197
C     -1.835675323931     3.394404297303     5.011498568746
C     -2.587342840186     3.565587276474     3.831527553710
C     -2.280820048027     2.804229987355     2.685909976401
H     -0.989219001034     1.274967051244     1.844751290609
H      0.341948775740     0.978747221572     3.911920247367
H     -0.195979511597     2.333437381480     5.954736662710
H     -2.072614366612     3.981536286710     5.895959878428
H     -3.402515268200     4.285013509814     3.804187806442
H     -2.852117907037     2.941164387103     1.770379707829
C      1.900299078265     0.857396702805    -2.386107728311
H      1.489901546181     1.862329835623    -2.320940029486
H      2.899622697873     0.723805965065    -1.987372681000
C      1.280441715185    -0.141474389748    -3.103491285670
H      1.757501665703    -1.097086014051    -3.247941203619
C     -0.031303470596     0.000581443658    -3.754895864698
O     -0.861133693383     0.819772311325    -3.268779419689
O     -0.392861998117    -0.899961070837    -4.769404404329
C     -1.783894811714    -0.928815320471    -5.116309690468
H     -1.945040625863    -1.677507660524    -5.921567840818
H     -2.399788768709    -1.234380868336    -4.239322426065
H     -2.123814664441     0.064014857982    -5.488041098873
Pd     0.572236420102    -0.276710706752    -0.752592568349
C     -1.418286226630    -2.293410482498    -1.187853789992
O     -0.237966182304    -1.860028999124    -1.704266967328
O     -2.142569025938    -3.120559702079    -1.767842025128
C     -1.764938023695    -1.662362712052     0.193982190442
H     -2.167060550000    -2.477832055872     0.808340640607
C     -2.827440298910    -0.590740002714     0.073254562463
H     -3.039496523466    -0.158733322792     1.072960224192
H     -2.478016266383     0.215700537938    -0.600637234814
H     -3.762396917863    -1.026186161008    -0.337783275013
N     -0.543900635996    -1.049259710488     0.743222330479
C     -0.002683893646    -1.225404151151     1.964422511684
O      1.152953289362    -0.831045657324     2.300406613587
C     -0.830326609459    -1.883627847178     3.005083825384
H     -1.782293177911    -1.332881963318     3.093658419577
H     -0.978695383784    -2.938324571231     2.723893180778
H     -0.289358405987    -1.836747146484     3.968261163244
N      1.327032640294     1.369685209675     0.307856449127
C      2.437280925185     1.272853968210     1.107098790472
C      2.874312713391     2.377970883086     1.812894221100
C      2.185734126454     3.570169568051     1.743644306035
C      1.088193567695     3.638770146457     0.925673134092
C      0.685678444052     2.488620316092     0.223890037722
H      2.997779455272     0.346358154320     1.151229856438
H      3.742834422691     2.290938443346     2.444273684066
H      2.508579915635     4.434660335717     2.317349961323
H      0.500436332370     4.529829871937     0.833325964816
O     -0.401358255337     2.655841114805    -0.535902465461
H     -0.655583797292     1.812450052718    -0.990239326659

