# STO-3G

title

0 1
C     -1.601013539301    -2.852677276716     0.024635360948
C     -2.392746906944    -2.859690103183     1.191188392083
C     -2.173766132291    -3.831323317391     2.187807665842
C     -1.161561339910    -4.797064571866     2.018063169772
C     -0.377505157855    -4.797008394014     0.847164493086
C     -0.599728311319    -3.828848040435    -0.152004979351
H     -1.761064698980    -2.104744423286    -0.747416217112
H     -3.185586138776    -2.124740241016     1.319346755422
H     -2.788656301192    -3.838561334963     3.085043730095
H     -0.990579139969    -5.546709317759     2.787389727231
H      0.400415029993    -5.543891326865     0.709316975869
H      0.000676161828    -3.839245653049    -1.057765924241
C     -1.682748974776     0.648929434308     0.450865036854
H     -2.595256983042     0.670696654646    -0.139601542889
H     -1.456047662947    -0.301023361232     0.923606295364
C     -0.992561557088     1.798243885146     0.815432782060
H     -0.172081230280     1.705452663587     1.506063925093
C     -1.415473101243     3.183276034501     0.547119215733
O     -2.423902427178     3.391690971113    -0.181578016615
O     -0.850892483534     4.219303641182     1.311527550116
C     -1.308887333327     5.543953016097     1.008462700967
H     -0.782105818416     6.272066166899     1.661780416021
H     -1.085981597362     5.804539781581    -0.050898260111
H     -2.402909153685     5.637480389782     1.193833276929
Pd     0.053241338788     0.451837027460    -0.991427854933
C      2.108798509634    -1.635910635957    -1.008896392562
O      1.187849751375    -1.062395155503    -1.840589263423
O      2.703715151534    -2.686518076762    -1.287827497239
C      2.315805659456    -0.848920549566     0.322529720834
H      3.403833223828    -0.764212049158     0.451443136239
C      1.760807165496    -1.609919554478     1.506144777753
H      1.982828334919    -1.057083631226     2.441706445903
H      0.661669198784    -1.710920260519     1.409436817454
H      2.215401004904    -2.621369041414     1.564676131570
N      1.629700895892     0.446739115413     0.259401554314
C      2.161740896586     1.680002673397     0.392424301637
O      1.541434305307     2.727647700297     0.029860209504
C      3.475121016651     1.825118179759     1.061298849162
H      3.670407134761     2.903295870651     1.207442607683
H      3.422449642037     1.319158989094     2.039731526905
H      4.257639222057     1.395627720494     0.413594186412
N     -1.324362064504     0.400336216271    -2.567104038944
C     -2.062888434473     1.515824012405    -2.863301547556
C     -3.049053930913     1.458514539489    -3.826594613518
C     -3.292639590306     0.290430877524    -4.513098543753
C     -2.510986515829    -0.799142339726    -4.236104807736
C     -1.498359202995    -0.698901763270    -3.259289124593
H     -1.866947427775     2.444607741726    -2.349674556618
H     -3.631439308546     2.340907232026    -4.037371097074
H     -4.070523726991     0.240891377738    -5.270447183621
H     -2.623048171059    -1.728194901804    -4.758947245111
O     -0.767801042320    -1.779003932439    -3.119155659001
H      0.141539694141    -1.635156358152    -2.596466986454

