# STO-3G

title

0 1
C      3.614655612583    -1.227311076576    -0.715770400037
C      3.306850868222    -2.562809813897    -1.049297084507
C      3.850581073341    -3.621845934242    -0.295323587875
C      4.708624611519    -3.349550884382     0.790062336791
C      5.032127982583    -2.016344689418     1.113438968078
C      4.487741903795    -0.956952378031     0.358768458738
H      3.176719651412    -0.426434059186    -1.304152452802
H      2.658914650205    -2.763064431734    -1.899228887133
H      3.617718841712    -4.651517265048    -0.558628628334
H      5.135498898721    -4.168171833737     1.365794462764
H      5.713255548691    -1.805414174187     1.935635665594
H      4.762255545662     0.069251746093     0.599787812747
C      2.232993852224     1.991915369583     0.099050994541
H      1.690398696136     2.688145234746    -0.532764207924
H      2.999134484705     1.413986656830    -0.397044003754
C      2.040258477374     1.921615541149     1.459028686054
H      2.653473774921     1.270063826368     2.063564891470
C      1.146228633617     2.815738738532     2.216193949637
O      0.345512719550     3.568427413326     1.599266647725
O      1.245642586689     2.836896793902     3.617674191578
C      0.266883299266     3.634060919126     4.298789197463
H      0.432569321807     3.563960957879     5.394773249129
H      0.347445932767     4.703541221300     3.999616710716
H     -0.761983121257     3.265059068037     4.080864158129
Pd     0.563342234083     0.326419908977     0.229524856626
C      0.512653707842    -0.456656167940    -2.460897932658
O      0.941839258405     0.609258461843    -1.746456757405
O      1.116907229328    -0.911836976007    -3.450622531512
C     -0.846674285846    -1.045566372591    -1.977604327088
H     -0.831796975919    -2.122518539641    -2.189693700596
C     -1.967238394931    -0.381426455614    -2.766808828002
H     -2.937877784480    -0.882432587827    -2.597421536837
H     -2.047266180097     0.685566810568    -2.467652477231
H     -1.750830638611    -0.432936578839    -3.855319506286
N     -0.999245511549    -0.743177209866    -0.529822992225
C     -2.096890509718    -0.841294059085     0.213918191514
O     -2.334636480269    -0.163237374891     1.276420183389
C     -3.130688530519    -1.850290659222    -0.110947489762
H     -4.044619047932    -1.313747019520    -0.417258239718
H     -2.781599665720    -2.541912413794    -0.891840324656
H     -3.332113034855    -2.428986683411     0.808572189326
N      0.569117486088    -0.520657349408     2.137516266708
C      1.511358012110    -1.503089297505     2.284326635515
C      1.846174314970    -1.954272175122     3.544418753344
C      1.220777360687    -1.442529017446     4.661149153001
C      0.240451998750    -0.501824274335     4.483929812769
C     -0.083019302102    -0.074532875290     3.178863034783
H      2.001642943436    -1.913201799749     1.414522991014
H      2.606166273738    -2.711445585928     3.648066392869
H      1.484516269036    -1.791055016806     5.656037264379
H     -0.306110488327    -0.081389967544     5.303334059959
O     -1.068876421436     0.779035325441     3.073109924528
H     -1.629039188108     0.547568960093     2.155878384324

