# STO-3G

title

0 1
C      1.872125955237    -2.208938835103    -0.984974629018
C      0.862910932400    -2.382657647078    -1.955984856409
C      1.204872448394    -2.771116215978    -3.266961656498
C      2.554875318393    -2.986351651489    -3.611873988342
C      3.562944276278    -2.823233761664    -2.640613633210
C      3.220701162602    -2.439784040257    -1.327564831615
H      1.611488817465    -1.933231492690     0.034600413053
H     -0.176936973814    -2.215390249146    -1.685188100917
H      0.424082901900    -2.913078602443    -4.011427647487
H      2.817060360043    -3.289249014217    -4.623496042142
H      4.603263942910    -3.006783991125    -2.901613341146
H      3.997319952299    -2.348926929306    -0.571447926127
C      1.577504462246     1.481766391821    -1.425365140425
H      1.776135135955     2.460956904790    -0.996782876209
H      2.428770375347     0.822343898984    -1.556289226830
C      0.352207186726     1.144419555317    -1.957416390376
H      0.225303809475     0.207379109402    -2.473090371942
C     -0.842795237991     1.999394651152    -1.904999919747
O     -0.959989858045     2.812034918907    -0.945160716647
O     -1.905684234007     1.742825388874    -2.785821482222
C     -3.152671274434     2.374424837112    -2.466241425903
H     -3.910570324179     2.095622946648    -3.229669865608
H     -3.524227502432     2.027783934722    -1.474585741748
H     -3.049707200633     3.482986384988    -2.463486088872
Pd     0.433281546238     0.433981792274     0.379591766544
C     -2.272710066262    -0.504834622516     0.544500253967
O     -1.284655984386    -0.324680578541    -0.373671970962
O     -3.446628099696    -0.762584393176     0.227443015756
C     -1.791166188217    -0.378607583894     2.025761287916
H     -2.258624705157    -1.211342766874     2.567045662277
C     -2.248496917871     0.916582179817     2.660770143012
H     -1.839082189028     0.994550505576     3.688905172285
H     -1.891957523420     1.779429639751     2.066201080224
H     -3.357374977150     0.946039817332     2.707530765813
N     -0.321079810535    -0.419708531946     2.039189190770
C      0.480394114265    -1.253263853179     2.731054608888
O      1.698307969208    -1.467309740906     2.449092029434
C     -0.083526140694    -1.936005265642     3.920612721083
H      0.740750764144    -2.449438586029     4.448274116858
H     -0.527536732982    -1.171625033684     4.579592549020
H     -0.823966697986    -2.683133211405     3.590091002067
N      2.113037646995     1.229288349323     1.352013046430
C      3.298702377710     0.550639933819     1.467990775039
C      4.350844284916     1.118346171592     2.162172159203
C      4.207712940711     2.348193813696     2.767790470494
C      3.007890964157     2.998931057421     2.639554388303
C      1.972632013068     2.387174195500     1.908186195745
H      3.428112627860    -0.407803533761     0.982206724162
H      5.279642239140     0.578708418199     2.245856202475
H      5.026610419434     2.792400344744     3.327311208749
H      2.828201045617     3.959785112294     3.078542558768
O      0.851759350154     3.107469514022     1.822938846498
H      0.175536486306     2.632392817553     1.271317217643

