# STO-3G

title

0 1
C      1.243430505308     2.652605520837    -0.982973163884
C      2.450373821917     3.330719529219    -1.266510817321
C      2.524363694428     4.235191221593    -2.347318518165
C      1.394050429432     4.474856991440    -3.152066133671
C      0.190777606730     3.797684011076    -2.873614757701
C      0.114981055663     2.887042412546    -1.799090089934
H     -0.809540369246    -1.540234601418     4.052623439845
H      3.335203580785     3.166536722308    -0.653456372316
H      3.459552686010     4.752593856393    -2.553857652927
H      1.448781906224     5.176601192939    -3.981195387347
H     -0.688433007987     3.971443955711    -3.491220960929
H     -0.819792824873     2.362311178616    -1.612387218054
C      1.042891061750     2.229018240922     2.523278367503
H      0.212111094884     1.654325455507     2.914327022472
H      2.019287331009     1.943437464008     2.898844456149
C      0.865069726718     3.336885168559     1.715984835097
H      1.713422266126     3.938945554195     1.431966370684
C     -0.446177110057     3.910456754846     1.365872763203
O     -0.494121517246     5.061423369182     0.860384788167
O     -1.608322065379     3.142859167227     1.554013334003
C     -2.822354656177     3.712077230248     1.044211321936
H     -3.664799048950     3.010715400079     1.226775723838
H     -3.052122857951     4.676310197501     1.551952037327
H     -2.748359127937     3.881678598462    -0.054357706782
Pd     1.213215236095     1.261967476950     0.484440548576
C      1.258674599648    -1.598806154017     1.610468067911
O      2.035880390279    -2.253600441212     0.869168942794
O      1.344167280394    -0.327472013595     1.928352133812
C      0.062728317455    -2.350874912909     2.316675033087
H      0.520507315887    -3.014813209824     3.061202879624
C     -0.747977509001    -3.210718789274     1.368091856222
H     -1.536272991085    -3.746504407452     1.935868090392
H     -1.231068360810    -2.582498154042     0.595672780911
H     -0.090898673162    -3.954302325683     0.871099870138
N     -0.847357777590    -1.452837537134     3.044998545099
C     -1.544717199452    -0.421448585176     2.538620433828
O     -1.596064183825    -0.062425061026     1.332536456388
C     -2.356835441705     0.335281376175     3.515661544481
H     -1.683746421089     0.734949327541     4.291992929379
H     -2.870995159652     1.159858330749     2.992149670992
H     -3.092310363146    -0.358393740049     3.958758987603
N      1.295224876883    -0.085669314853    -1.069595991960
C      2.517992485194    -0.356713556678    -1.622318783150
C      2.606797903583    -1.158212915778    -2.741955181245
C      1.473236782807    -1.713785583097    -3.291984408529
C      0.266384679187    -1.450766972676    -2.698672066379
C      0.219959888807    -0.629672836216    -1.552246797196
H      3.412009115821     0.082089368876    -1.195436401515
H      3.571857394919    -1.359267103956    -3.175639752669
H      1.535644565830    -2.352625912828    -4.168654525069
H     -0.649612008352    -1.867388940351    -3.065212147169
O     -0.990234170215    -0.488610043443    -1.048109662121
H     -1.119319571603    -0.207150923272    -0.067713065602

