# STO-3G

title

0 1
C      1.719464859294     0.768993171731     1.610344812475
C      1.705480429590    -0.572287309347     2.049112568612
C      0.823616337124    -0.975677774946     3.072032568596
C     -0.046892472036    -0.036903287514     3.663997951222
C     -0.032736745081     1.304899837754     3.230992639982
C      0.850428551387     1.705395006815     2.207445313247
H      2.419353729044     1.084652019447     0.837588278319
H      2.383890233824    -1.293899224980     1.600481924463
H      0.823599257838    -2.009371536142     3.410343806855
H     -0.719491262290    -0.344755341258     4.461796519093
H     -0.693582133271     2.034105031750     3.694827442592
H      0.870617745650     2.744269923270     1.884320382001
C      1.232928010104     2.106200577367    -1.917761675537
H      1.752751903929     2.989411045031    -2.304012357061
H      1.764013540273     1.311214291290    -2.506744265698
C     -0.289056677736     2.082494443200    -2.170206305614
H     -0.528053493736     1.337912411260    -2.930108359022
C     -0.967640350823     3.368783547855    -2.531186452897
O     -0.404364383451     4.463788830277    -2.250917531088
O     -2.065071423041     3.326422525065    -3.413072620491
C     -2.630474001408     4.595689162032    -3.769164021145
H     -3.493457241415     4.436244420551    -4.450629140412
H     -2.995354092740     5.132761239519    -2.864402822504
H     -1.881919972709     5.228290905727    -4.298055431552
Pd     1.664099409119    -0.361905636246    -1.592803739963
C      0.670449221650    -2.935520694059    -0.860429008315
O      1.814450398476    -2.305731286658    -1.191726675044
O      0.628156307521    -4.132022078914    -0.521510597780
C     -0.636702138650    -2.089636107492    -0.958887193138
H     -1.216050275229    -2.345894502923    -0.061873735800
C     -1.438107549502    -2.482938123044    -2.182478350679
H     -2.390195526130    -1.914999829769    -2.213462017358
H     -0.855874746196    -2.251357817539    -3.098077619329
H     -1.668481155672    -3.569140304855    -2.158674464445
N     -0.348222370652    -0.639023331059    -1.090949523665
C     -1.098807173426     0.305642065599    -0.619619678610
O     -0.984184950686     1.607431733156    -0.932034204047
C     -2.167883471763     0.044007145123     0.364019200317
H     -2.633028482518     1.003959026497     0.654518912270
H     -2.927154441090    -0.604965585602    -0.099492124701
H     -1.713339543999    -0.419268257799     1.257034649035
N      3.638025408835    -0.299020110350    -1.906223194798
C      4.286054797901    -1.359422877287    -2.476954584288
C      5.657547232389    -1.331922300707    -2.607411755627
C      6.389376896134    -0.258472734771    -2.151919931499
C      5.729736351383     0.786014267424    -1.559763035127
C      4.320964937570     0.751170415654    -1.412746766873
H      3.723645423869    -2.201530980697    -2.862453029877
H      6.159063673739    -2.167521462198    -3.067150709072
H      7.471304616515    -0.243755675566    -2.252885356388
H      6.250944220961     1.635152952754    -1.166387579023
O      3.775620409030     1.729716061738    -0.813595893364
H      1.501163529478     2.093263018924    -0.861398146756

