# STO-3G

title

0 1
C     -1.111935208814    -2.714113428247     1.290679311202
C     -2.145705123720    -2.738286281223     2.248899384102
C     -3.357187624378    -3.401659270053     1.966026204796
C     -3.532363353249    -4.048568118614     0.726061087330
C     -2.493536200095    -4.034130970612    -0.228061593230
C     -1.283978842595    -3.368485553752     0.052108688495
H     -0.178565270680    -2.199512743458     1.503517940653
H     -2.005554006694    -2.247973007632     3.210508685790
H     -4.153423247658    -3.422026691648     2.707597219676
H     -4.464187968723    -4.567361732953     0.509070835001
H     -2.624372238779    -4.539347797299    -1.183275020754
H     -0.485844795078    -3.332614118383    -0.684512603777
C     -1.561210341717     0.956997905622     1.118360012299
H      3.794204515438     1.431745953344     0.212799778208
H     -2.054240605028     0.314092633285     1.850990006494
C     -1.694857882144     2.297991156843     1.108986257751
H     -2.322177377744     2.798186542738     1.838191581528
C     -0.997738946416     3.178254972572     0.164603421302
O     -1.215929778095     4.417357719403     0.213458177501
O      0.056980604630     2.649719346946    -0.601374172318
C      0.713607722312     3.574604787924    -1.480570049822
H      1.538586901671     3.057569118644    -2.016654111272
H      0.001904640454     3.965002387096    -2.242789983979
H      1.155172473444     4.423298967397    -0.911199298652
Pd    -0.410894232616    -0.102843379337    -0.081204194088
C      1.929946505732    -0.493279847498    -1.480953856366
O      1.757695943804     0.512498050102    -2.281590990604
O      1.059855360389    -1.419021249942    -1.259855214599
C      3.249228727441    -0.428250701935    -0.650575365873
H      4.063379681047    -0.163098184717    -1.332567374634
C      3.593451416024    -1.708865451049     0.079143262199
H      4.535968004748    -1.569141904654     0.647493811362
H      2.782312207711    -1.971003856696     0.788789520443
H      3.723314983009    -2.536688589357    -0.647685011643
N      3.138643821569     0.670743082068     0.335999147569
C      2.132737019512     0.835252665913     1.208771246512
O      1.170682809240     0.022640884356     1.382443283108
C      2.191525590349     2.045702301713     2.050298496194
H      1.325148294812     2.050257075217     2.734950553823
H      3.135817452136     2.016537521286     2.619310640974
H      2.159797598121     2.928063565327     1.387219943505
N     -1.860863148658    -0.067683732429    -1.512815396448
C     -3.087432621777    -0.578210569012    -1.180499442998
C     -4.118672983511    -0.550884531581    -2.094495644344
C     -3.926558719656    -0.014813955092    -3.347014482972
C     -2.687400840143     0.475369922755    -3.661289316632
C     -1.644537476238     0.421930613527    -2.708191707129
H     -3.251381639585    -0.997009063964    -0.194809866594
H     -5.080185929471    -0.952134294211    -1.820417154237
H     -4.736256343792     0.012648019732    -4.071255336814
H     -2.471530917311     0.893988924175    -4.623868163964
O     -0.512434871754     0.900246092634    -3.151706702614
H      0.451271840664     0.724230877034    -2.691962073243

