# STO-3G

title

0 1
C     -1.534700504195    -1.166005704430    -1.790942707815
C     -2.745624277634    -0.666950958699    -2.309521337100
C     -3.935175976571    -1.404640120196    -2.145823145959
C     -3.911909271999    -2.639369288014    -1.465879580071
C     -2.698868461421    -3.137334085307    -0.948169907477
C     -1.508814528729    -2.399635213306    -1.110140964400
H     -0.618482953645    -0.592463144782    -1.912770839573
H     -2.753663603411     0.287916295929    -2.830489423538
H     -4.871423584307    -1.018965359525    -2.543206794175
H     -4.831039894974    -3.207872015324    -1.340718709299
H     -2.681892884723    -4.091112549740    -0.425127578055
H     -0.568287122800    -2.772209596559    -0.711475224996
C      2.498946175933    -1.096077640951    -2.386881346283
H      1.860544191896     1.539208593290     0.591964293435
H      1.851921613682    -1.751849190983    -2.972076479655
C      3.775022861860    -1.351436455367    -2.043259978078
H      4.249665023030    -2.284084250181    -2.323370916227
C      4.586862418854    -0.428929367705    -1.237996062930
O      4.156111663678     0.736946504433    -1.015164841320
O      5.890136339493    -0.809831069186    -0.874929822287
C      6.629681339944     0.149796500905    -0.106530803816
H      7.633648805277    -0.263225202323     0.131130658195
H      6.769347690936     1.094177259152    -0.680145265847
H      6.109584005389     0.373646656109     0.852815083725
Pd     1.526262210255     0.462487158189    -1.678348320135
C     -0.528531322870     2.709548158953     0.091737997198
O     -0.023373794978     2.035132008865    -0.950256894616
O     -1.470245500537     3.524922776068     0.051061020225
C      0.157928178958     2.360267817925     1.466275280338
H     -0.636436999240     2.069428570026     2.161992864303
C      0.901754762972     3.534132676400     2.059711722980
H      1.357283015948     3.233336945070     3.025694051742
H      1.709395846984     3.852939245430     1.369044070269
H      0.206208958060     4.382095223805     2.230217443688
N      1.120606098649     1.271742861381     1.251036241873
C      0.800206121582    -0.023123239867     1.073979098162
O      1.302647427929    -0.719190339131     0.131547433204
C     -0.143781800556    -0.657798152651     2.007280452954
H     -0.158210190964    -1.744173072862     1.808813637793
H      0.211771803997    -0.461549870065     3.032981614970
H     -1.150056561415    -0.238101845904     1.839067638599
N      1.617852671176     1.401314680381    -3.510617823928
C      2.749082206251     1.339918121462    -4.280383022654
C      2.724752575422     1.795789140904    -5.582525863621
C      1.572964758902     2.327931485343    -6.117558664667
C      0.463025400963     2.410255088012    -5.320001235933
C      0.523904498613     1.950767925635    -3.986485680915
H      3.664034846795     0.927691033790    -3.873570585350
H      3.618084546589     1.733969160175    -6.181913573894
H      1.549413485400     2.687027989474    -7.143016461485
H     -0.456874984361     2.837229494734    -5.666686865013
O     -0.574568963726     2.118881511850    -3.298508067564
H     -0.454972340993     2.105532576618    -2.203528327207

