# STO-3G

title

0 1
C     -1.595257996630    -2.556475799603    -0.095894019089
C     -0.655025739354    -3.034759155788     0.861208401842
C     -1.036359549281    -3.176974206254     2.222191082979
C     -2.335421112308    -2.845476278782     2.630285678385
C     -3.269884284564    -2.347311314772     1.688750643218
C     -2.904344040158    -2.199881220926     0.343228781010
H     -1.370260765566    -2.553005481291    -1.160897601357
H      0.315551741677    -3.394190263678     0.533220471296
H     -0.316071953211    -3.559330828960     2.941811332887
H     -2.626903132179    -2.967256468201     3.671011272711
H     -4.274371375351    -2.082402025282     2.010322784001
H     -3.620081765233    -1.830252526346    -0.386493886606
C      1.841407888313    -1.840148004812    -1.558047975827
H      2.143473588852    -1.938840435834    -0.517293243162
H      1.047381085372    -2.494668064699    -1.898285890093
C      2.394940729839    -0.933162897328    -2.395248024464
H      2.037812782404    -0.856790727511    -3.414899548216
C      3.418589636827     0.051362130275    -2.014253423547
O      3.687827943407     0.234809248395    -0.792989972154
O      3.979193988398     0.865004250151    -3.013861344478
C      4.950191658401     1.824477242835    -2.574399982860
H      5.324863603928     2.394774737390    -3.451790934794
H      4.497030506161     2.546973851070    -1.859481502043
H      5.817627129397     1.317810020234    -2.093713927002
Pd    -0.373100071408    -0.608911220347     0.144525707529
C     -0.959460087874    -5.012509546384    -2.572476757398
O      0.029062812819    -4.644951705662    -2.016824531672
O     -1.936530472534    -5.385104889911    -3.145728370395
C      0.605164767985     0.532754775110     1.674662783066
H      1.577153814922     0.178567918917     2.020858157031
C     -0.454368956525     0.814819993323     2.688858774167
H     -0.170774668114     1.717395549326     3.266925371853
H     -1.426905450294     1.000595203074     2.187241915011
H     -0.553980006659    -0.050755692356     3.374653139366
N      0.426769618866     1.214407162383     0.507143755247
C      0.995930643109     1.974973003285    -0.406863856544
O      0.747626769344     1.881936580914    -1.664575568173
C      1.901008174841     3.034245510842     0.064969977258
H      1.342758591342     3.669261593579     0.773477126282
H      2.758450704008     2.547076863149     0.559967375728
H      2.243434365372     3.628510895141    -0.801231623021
N     -1.325923191121    -1.860271949577    -3.465161951206
C     -1.571258782602    -2.375601210161    -4.710280767043
C     -1.367855515733    -1.597503832599    -5.836381314536
C     -0.924341728379    -0.299362209212    -5.719705988017
C     -0.701620731844     0.201348247512    -4.463355206274
C     -0.932946737196    -0.639303131263    -3.342352270820
H     -1.919833361780    -3.394881649240    -4.816013477590
H     -1.558421661406    -2.020834967022    -6.808549842993
H     -0.762952598574     0.314232941397    -6.601920964247
H     -0.373119030662     1.210652084666    -4.315915513861
O     -0.720849589477    -0.083872271212    -2.140964885700
H     -0.114089762332     0.778783799363    -2.050339854534

