# STO-3G

title

0 1
C     -1.322737631484    -2.608730587625     1.573040390373
C     -1.523703919236    -3.293860825361     0.356428150015
C     -2.728717299001    -3.990913575693     0.138591448046
C     -3.730169910823    -4.003422989156     1.131081253495
C     -3.525223518158    -3.322127611855     2.347694396934
C     -2.319016348318    -2.627247443451     2.569921844639
H     -0.387896671325    -2.077025308181     1.737540763915
H     -0.753445632887    -3.251023631120    -0.408155702232
H     -2.883644556209    -4.522082786264    -0.798156195128
H     -4.658949658308    -4.544270646963     0.961456781474
H     -4.293854957780    -3.338807494746     3.117617314918
H     -2.156097554554    -2.115917788696     3.517429298107
C     -1.229753472871     0.839993744108     2.057311948564
H     -2.219565815790     0.406048459417     1.966173665674
H     -0.599364793895     0.462616333559     2.857157246184
C     -0.847565599019     1.993027447193     1.355454942119
H      0.092102795852     2.465860792790     1.598284563013
C     -1.747513976734     2.780419148025     0.493399274588
O     -2.969164517039     2.476725979111     0.419281898545
O     -1.250934966879     3.954273980216    -0.096304640802
C     -2.123961862852     4.591252479962    -1.039108696525
H     -1.621460030054     5.489770106869    -1.456765780690
H     -2.359675039335     3.903021540748    -1.883308489161
H     -3.069892357124     4.915589220215    -0.549025041623
Pd    -0.004430162848     0.145512130090     0.367447044384
C      1.783305659442    -1.441452646092    -1.641735668569
O      0.824429448415    -1.446157214596    -0.700953918929
O      1.709523626333    -2.018629809608    -2.744458548263
C      3.134169748123    -0.729889115704    -1.203838873213
H      3.212795446553     0.211418995902    -1.756421996255
C      4.356771730907    -1.572929390686    -1.473837478840
H      5.261639275405    -1.046733704101    -1.105330730799
H      4.269366181492    -2.550404487455    -0.956875268210
H      4.460529350932    -1.749511570075    -2.565229039732
N      3.042044438677    -0.511184802277     0.252838490175
C      2.559331746754     0.583151358667     0.849683870806
O      1.703431915604     0.500734913212     1.814890685347
C      2.998734066373     1.906135543687     0.381671725778
H      2.676143723582     2.667934357231     1.113522310876
H      4.099671492980     1.900640642340     0.304598364793
H      2.529325386439     2.119448757040    -0.597176799529
N     -1.343798099661     0.282678045932    -1.083129005847
C     -2.513045796454    -0.407939178165    -1.214271711439
C     -3.172613638951    -0.396181956292    -2.424819796461
C     -2.664601522889     0.303536680380    -3.499334778323
C     -1.482326854256     0.983842546780    -3.351990340851
C     -0.792149863619     0.944441777179    -2.116091361781
H     -2.935129463057    -0.930706507386    -0.364910006676
H     -4.100058881854    -0.934244172296    -2.522252873576
H     -3.189899823714     0.310682542859    -4.450218105594
H     -1.028038732223     1.520245945716    -4.158451442291
O      0.325385062495     1.540092328520    -2.022649503804
H      2.694904818232    -1.346858096635     0.724425571208

