# STO-3G

title

0 1
C      1.915454346083    -0.329480517720     0.341436749826
C      2.583624376731    -1.323348223102    -0.404785998058
C      3.798389497751    -1.859012827737     0.072172252026
C      4.341454170834    -1.399425229818     1.288953633959
C      3.673680918353    -0.400964264730     2.028217378752
C      2.459450402915     0.136417619175     1.556692580727
H      0.980227414038     0.095049972809    -0.008048173047
H      2.177130903876    -1.661318761428    -1.356174209344
H      4.319445390333    -2.619650353459    -0.505039295704
H      5.280614912334    -1.810482766096     1.653320504177
H      4.099561001633    -0.041529170538     2.962473748756
H      1.924145631369     0.907354363192     2.102432898125
C     -1.402895243869     2.363002737467    -2.028641660407
H     -2.033210446654     3.219672159030    -1.813805719130
H     -1.668906513098     1.722407453046    -2.862909789802
C     -0.127458177005     2.238273809167    -1.452189791828
H      0.525826994295     1.457560260331    -1.811778301900
C      0.510726979227     3.242047938921    -0.581556428064
O     -0.099533021377     4.311200532638    -0.305871110365
O      1.866897226905     3.074524480041    -0.258390503467
C      2.382718332839     3.970981417242     0.733477882963
H      3.448963447279     3.726993022963     0.926834211312
H      2.320793679768     5.026825709377     0.385894718420
H      1.822610388755     3.858107849633     1.690046254969
Pd    -1.641700423838     0.882026988917    -0.436550340865
C     -0.718248679350    -1.701002634431    -1.973030936414
O     -0.971638293617    -0.404469464513    -1.880202070847
O     -0.238778048191    -2.233057444908    -3.004009068847
C     -1.044511834354    -2.673546846825    -0.779964295978
H     -0.367264853283    -3.519342775745    -0.934169254519
C     -2.463999152125    -3.200667536997    -0.858148532596
H     -2.654932877224    -3.904409023908    -0.021442203444
H     -3.190170916807    -2.364110063778    -0.801806210410
H     -2.616088923960    -3.737946466907    -1.817963827250
N     -0.787333518640    -2.191834994402     0.590263337868
C     -1.487661257600    -1.307516796905     1.299563442475
O     -2.467614076566    -0.616190015074     0.839114333425
C     -1.102061554589    -1.140057758976     2.710878802234
H     -1.176411575373    -2.115050097190     3.221054034460
H     -0.074039150447    -0.737178768658     2.748968743916
H     -1.788425446268    -0.412656458829     3.183645425715
N     -2.175287589006     2.223127202948     0.939801933642
C     -3.418352493744     2.782830805146     0.999054039263
C     -3.787375704404     3.515907431536     2.106434729921
C     -2.911339792627     3.697658857850     3.154535721300
C     -1.671843990656     3.116936724303     3.089291701153
C     -1.301588270867     2.357545542146     1.950947385829
H     -4.108512314274     2.654709099022     0.173649338769
H     -4.766853543280     3.962232645789     2.142254585686
H     -3.200580831639     4.286247686358     4.020774736749
H     -0.951614609714     3.221222626860     3.873425333945
O     -0.149234009110     1.820435946112     1.944693751177
H      0.089035695328    -2.509494219441     0.988178466768

