# STO-3G

title

0 1
C      2.690248975739     1.752424734551     2.163854979013
C      3.784208068560     1.969992764093     1.301639177666
C      4.155101901815     3.283190341639     0.952310457306
C      3.433116681504     4.379653911701     1.467167844862
C      2.342207506954     4.162791039787     2.332708149920
C      1.971506579449     2.848313721025     2.681568082272
H      2.439162891384     0.727112327235     2.407824884384
H      4.326845998974     1.108880793005     0.921518527148
H      5.000349538780     3.452338347716     0.288950497060
H      3.719639315150     5.394290494050     1.199239699032
H      1.788045850917     5.008915017630     2.732980816511
H      1.128248159755     2.686861804555     3.352418259871
C      0.886013469880    -0.892262577058     3.630093996026
H      0.647896684249     0.161525644217     3.745887266675
H      1.935921290225    -1.142205154695     3.526885343828
C     -0.085673757275    -1.881704064576     3.821652754497
H      0.223727103864    -2.914847163499     3.839892555893
C     -1.465424901879    -1.624844936221     4.274559583684
O     -1.803598559077    -0.471304578263     4.650902756439
O     -2.349657257517    -2.713268335090     4.366606098703
C     -3.672107470077    -2.406857054527     4.830989005795
H     -4.279343946724    -3.337266367687     4.856183276671
H     -3.641860656836    -1.983653811058     5.860900785183
H     -4.172846122303    -1.682330146368     4.149006262084
Pd     0.124017599660    -1.452529559563     1.619572876227
C      0.204514738740    -1.106851947099    -1.507811758235
O     -0.226509217835    -1.726371375856    -0.403858319193
O      0.241745023981    -1.628472062287    -2.642413983120
C      0.584431391437     0.435506522166    -1.376625329981
H     -0.033028506440     0.969566514085    -2.108696631348
C      2.039276283684     0.706307902034    -1.682795500055
H      2.261054505302     1.784023906865    -1.532558410074
H      2.692592428382     0.106862624431    -1.013130936582
H      2.261713233977     0.433770660316    -2.735661004564
N      0.312096754806     0.886651795974    -0.005907195190
C     -0.916659009061     0.876997094010     0.540262485741
O     -1.165676485443     0.264154800742     1.640515307519
C     -2.011691997110     1.564946109664    -0.158222106119
H     -1.692328985931     2.602560401456    -0.358827575458
H     -2.233586809510     1.024798600143    -1.093203707617
H     -2.906000464020     1.562398054933     0.492665906265
N      1.489331764233    -2.885314176483     1.440817550998
C      1.161125309975    -4.174386759141     1.133904237590
C      2.146525342478    -5.050102639878     0.733003612524
C      3.455051873991    -4.633660581529     0.616342104272
C      3.758771445147    -3.323469962416     0.882774627417
C      2.737263098209    -2.419700799644     1.265681154079
H      0.138026663726    -4.514047412611     1.245463627571
H      1.885504399182    -6.070528236088     0.506761569016
H      4.229520648492    -5.327232790599     0.300224757137
H      4.750580494676    -2.936275781109     0.771006958492
O      3.053066688242    -1.196293430162     1.409175819070
H      1.047160529357     0.639003187480     0.664820955387

