# STO-3G

title

0 1
C      3.274032483609     1.208725047775     2.171426525720
C      3.394676412819     1.401265836636     0.779730826508
C      3.561793656566     2.700041741383     0.258960928430
C      3.604808282619     3.810398310472     1.127152166891
C      3.483822140938     3.618837189450     2.518560853309
C      3.322354891916     2.318772572942     3.038217651304
H      3.169819884978     0.205248431229     2.580426631961
H      3.341324683427     0.546698947652     0.111219512628
H      3.665275189566     2.843084896269    -0.814612190751
H      3.741532374340     4.812558432460     0.725695997141
H      3.524945287895     4.472739306916     3.191638718984
H      3.241881851489     2.169831082589     4.113053199227
C      0.679159180319    -0.634494134373     4.123152675393
H      0.107839167953     0.285415863114     4.167553986642
H      1.720728219094    -0.621632243815     4.422316032533
C      0.100215827202    -1.875525937971     3.840739025328
H      0.708256378466    -2.756824227603     3.961165281503
C     -1.324011038389    -2.116842508536     3.576103508456
O     -1.964182449214    -1.257468997582     2.910873443148
O     -1.814192014986    -3.425381495086     3.716494313906
C     -3.186163106929    -3.628087229354     3.349654612010
H     -3.459504953240    -4.691092825173     3.526483769302
H     -3.859804593296    -2.990066958066     3.965589572369
H     -3.345891886879    -3.406160315354     2.270399620109
Pd     0.787524178631    -0.881404302218     1.891920570963
C      0.206179173459    -0.675807161247    -1.234944576536
O      1.014395823545    -0.638871854716    -0.176140498119
O      0.392526150773    -1.371518155372    -2.258403154305
C     -1.070251087613     0.265301365385    -1.203322004950
H     -1.927689249172    -0.332433686522    -1.529882569803
C     -0.935383119227     1.443083368378    -2.141247128706
H     -1.832124292008     2.091704874180    -2.065168843876
H     -0.018850100702     2.020916131822    -1.906864237168
H     -0.855565671162     1.077302796473    -3.186842793447
N     -1.326797919055     0.700136412418     0.186652149717
C     -0.595975759833     1.514763289849     0.984398126895
O     -0.058949012123     1.083497381179     2.054078117924
C     -0.464979435666     2.945947559114     0.683980537467
H      0.582626847197     3.134690105450     0.390282484236
H     -1.177499832088     3.237423644650    -0.101925547018
H     -0.695230176769     3.506254633748     1.607910300169
N      1.889993568054    -2.537554427319     1.710394226503
C      1.720126410044    -3.332268261478     0.610036052413
C      2.610146882447    -4.351857164117     0.355519167845
C      3.682777281608    -4.574687612711     1.187503530736
C      3.849121591468    -3.766704494871     2.279820661017
C      2.938985582788    -2.710049098711     2.540993603026
H      0.864225059594    -3.193010415642    -0.037826820617
H      2.463473636846    -4.973998438567    -0.511471646025
H      4.386032369327    -5.376676395121     0.980793019785
H      4.670895101350    -3.887199482157     2.955488060819
O      3.171668676745    -1.990768865051     3.558096353670
H     -1.567563223232    -0.125769774779     0.748113124292

