# STO-3G

title

0 1
C      2.756049410036     1.766793584826     1.878960796068
C      3.770189242432     2.246708769051     1.024761375874
C      3.852901156042     3.619751960655     0.719168761052
C      2.922984969677     4.523194267467     1.273552019801
C      1.914088649048     4.050241539906     2.136431527753
C      1.832206353398     2.674821125532     2.436530406812
H      2.717943700911     0.702772845591     2.085243852582
H      4.485997451892     1.542289642311     0.608452821592
H      4.638960911767     3.984356167937     0.061465171699
H      2.990859703774     5.584545611913     1.044864978542
H      1.207913863247     4.748174514176     2.581814322534
H      1.058622664062     2.323821974075     3.119220212528
C      1.101446289520    -0.872573812561     3.334772874498
H      0.805669974765     0.171923816184     3.358827796600
H      2.161719999546    -1.078265401791     3.241676763818
C      0.172590142775    -1.882813751111     3.581909088933
H      0.519201652907    -2.901183942754     3.669546370453
C     -1.227488308996    -1.649638908151     3.984946658106
O     -1.620751053971    -0.483300743339     4.263336200585
O     -2.062626708709    -2.764966458969     4.168825472965
C     -3.409198190773    -2.479216287641     4.572135106641
H     -3.972063696868    -3.431679041565     4.677279199373
H     -3.425406452970    -1.955610234241     5.555011644926
H     -3.925204998274    -1.852526853167     3.809585348462
Pd     0.386961477911    -1.629556838872     1.330810354370
C     -0.409644140772    -1.181502201057    -1.516917725675
O     -0.095743093999    -2.080049194281    -0.583162978153
O     -1.126689045420    -1.431296263076    -2.510664949579
C      0.226019089545     0.258752207443    -1.407363057596
H      0.092814963247     0.694421511510    -2.403347962632
C      1.700010590027     0.246076877916    -1.073795166539
H      2.108914472635     1.276128117155    -1.123705756468
H      1.859183776097    -0.153309003579    -0.054803444506
H      2.249850832804    -0.393572106894    -1.795289440813
N     -0.456272865450     1.186578171661    -0.474597629815
C     -1.019975271779     0.971196363017     0.713948054452
O     -1.012131302528    -0.110688755985     1.383871233969
C     -1.739008901515     2.115114549588     1.304907761266
H     -1.030091170000     2.949342884242     1.445356405921
H     -2.568155489329     2.393820614870     0.632165863943
H     -2.148257997548     1.811299848607     2.289147855032
N      1.813312031378    -3.011578736607     1.235951005510
C      1.478217349810    -4.258929784520     0.790816183372
C      2.470224359942    -5.166668647035     0.490330156862
C      3.798329474969    -4.826121717611     0.616741407730
C      4.119389529336    -3.559737268808     1.029430304839
C      3.098129874559    -2.619063294542     1.318760391882
H      0.435145891024    -4.541302855856     0.706128715314
H      2.197258348084    -6.152225965227     0.152027987310
H      4.578202660672    -5.544826498578     0.380398282611
H      5.134491432400    -3.231864997633     1.119944177137
O      3.464827192360    -1.444660395075     1.637753063170
H     -0.479365468250     2.137085752800    -0.819222936143

