# STO-3G

title

0 1
C      0.359512445850     1.827776526614    -2.894470566331
C      0.252289193268     3.161631634720    -3.337421112911
C      1.202803553046     3.691791682553    -4.232330162474
C      2.261968205931     2.883372364421    -4.691982406564
C      2.366745063924     1.547005185660    -4.257446382304
C      1.417824447852     1.018323812384    -3.359543728396
H     -0.394485400196     1.446811011599    -2.210053731899
H     -0.574177063687     3.775469803491    -2.985351365045
H      1.117267819057     4.722230591508    -4.570855844278
H      2.995901583989     3.289439966968    -5.384877897243
H      3.179401032511     0.919608111811    -4.616564916085
H      1.505605089098    -0.019469133021    -3.041143724680
C      0.718873248901     0.816102265158     0.251178838546
H      0.474174055718     1.870876399509     0.178594100272
H      1.029042470732     0.331923024363    -0.666302165097
C      0.901403422615     0.157954325844     1.479248496412
H      1.261832188736    -0.861102474258     1.463644773483
C      0.906573972764     0.823860850411     2.791909893712
O      1.037943795392     0.120155004205     3.826796027877
O      0.712795054227     2.214458573285     2.874915518567
C      0.787354299348     2.783385593278     4.189649960811
H      0.618952764816     3.880105287917     4.124864139554
H      0.007852329396     2.350199931046     4.856217548827
H      1.792633211691     2.611991019653     4.637275520416
Pd    -1.134980396667    -0.276057396062     0.669479486301
C     -0.150674612238    -2.205903063335    -1.547750008593
O     -0.197090184470    -1.891795961129    -0.240710492651
O      0.880188101378    -2.616867672094    -2.124206927308
C     -1.521498683996    -2.145978168433    -2.359182936572
H     -1.828611736525    -3.190606595486    -2.500654435134
C     -1.393797679754    -1.510367306047    -3.723047099300
H     -2.368708266314    -1.566247480256    -4.250522613022
H     -1.107609467966    -0.445083609016    -3.632127256163
H     -0.627526692263    -2.042159165251    -4.325198733578
N     -2.509762325283    -1.391713920183    -1.587647791494
C     -3.099579607266    -1.888283647345    -0.485903105260
O     -3.066310071474    -1.269561324330     0.635019537988
C     -3.793690237902    -3.184139815119    -0.558898476959
H     -3.046407823569    -3.987213383065    -0.664947472691
H     -4.357232109136    -3.329063468310     0.380897337541
H     -4.489369307900    -3.160106519448    -1.416474502553
N     -2.060848832973     1.421342860979     1.190332482242
C     -2.365220228709     1.931356483871     2.418669216828
C     -3.138827787615     3.069616958441     2.512354732672
C     -3.615770297767     3.693235487220     1.378621315989
C     -3.324413792142     3.151048229264     0.153412347331
C     -2.545549012678     1.972412930185     0.071630567281
H     -1.990008960623     1.450191529450     3.313788399865
H     -3.368619181343     3.472849202668     3.484107597959
H     -4.223043528290     4.590996272985     1.455376454890
H     -3.687975278350     3.574949528025    -0.759808761035
O     -2.338350430520     1.470863686872    -1.089831249899
H     -2.349475716258    -0.363760134837    -1.520251641469

