# STO-3G

title

0 1
C     -1.093938728472    -3.005075438621     1.507424120396
C     -1.443603634274    -2.619229366141     2.816620212967
C     -2.672313054566    -3.034489984435     3.369018507596
C     -3.549062575175    -3.837092190374     2.612405857848
C     -3.196475271921    -4.228008092562     1.304258444345
C     -1.969257892556    -3.811909282636     0.752355048032
H     -0.168218251137    -2.689380020126     1.041091417758
H     -0.769138264933    -2.002321618629     3.408177395017
H     -2.944192266604    -2.734610661015     4.378647217768
H     -4.497729558920    -4.155866844828     3.038882024429
H     -3.872394929683    -4.850559568181     0.721866880382
H     -1.678300489559    -4.095093475761    -0.255874940618
C      1.396616820829    -0.605837593710     1.402391079968
H      1.773654180599    -1.618458677609     1.510938521259
H      0.344242877774    -0.451337809713     1.615632535679
C      2.252433307069     0.499343813678     1.257532776514
H      1.813023949557     1.485992821931     1.270515247674
C      3.721921787366     0.450976058830     1.345202548037
O      4.309999671869    -0.651900527818     1.501593513490
O      4.443449646757     1.645985616000     1.188698067592
C      5.870981220328     1.534982435751     1.279778148541
H      6.327462220882     2.539640614988     1.146328783196
H      6.174868852695     1.145749104568     2.278187240864
H      6.268421984506     0.864451434163     0.484498219442
Pd     1.412028232259    -0.119332773233    -0.732094398171
C     -1.275889082472     1.444004178476    -0.302644341165
O      0.066731342792     1.380022928843    -0.275059413372
O     -1.930464829009     2.289312474907     0.343439274779
C     -2.065886911785     0.449728667801    -1.258841492986
H     -2.644786108778     1.094486958794    -1.932201055657
C     -3.032163841082    -0.434155406238    -0.508362617861
H     -3.528100967539    -1.134597513671    -1.212328239786
H     -2.496230426423    -1.020538002926     0.262570337520
H     -3.806542558272     0.185069926706    -0.008919252225
N     -1.132817123503    -0.405919121759    -1.999926068400
C     -0.308542382859     0.112503576791    -2.932698208318
O      0.963723418720     0.019076768487    -2.842228553262
C     -0.871562981317     0.829016860578    -4.087920523320
H     -0.400360605604     0.412612994750    -4.995764370832
H     -1.962100054255     0.670631977213    -4.136769133172
H     -0.620025601621     1.899523926665    -3.987719377247
N      2.515192594617    -1.750565562937    -1.119929184615
C      3.861134328111    -1.877416202994    -1.309432453982
C      4.387512926210    -3.098341634297    -1.676920686975
C      3.570589413212    -4.194259735870    -1.854027857376
C      2.219377549257    -4.046209025625    -1.677702383252
C      1.688939484013    -2.784631614534    -1.316965084588
H      4.512205552015    -1.023107443203    -1.168864878123
H      5.451496232483    -3.193475773198    -1.813556545049
H      3.989424300804    -5.156497582026    -2.135544821173
H      1.533842436422    -4.856641058275    -1.815039367976
O      0.418512771684    -2.688921031617    -1.190427838487
H     -0.691641099556    -1.199919905368    -1.489529637860

