# STO-3G

title

0 1
C      1.434315131627     2.778218182345    -1.096462034495
C      2.781876670010     2.364988551752    -1.154195029698
C      3.722330989146     3.150730876688    -1.851271434421
C      3.324451732892     4.339215935582    -2.495802998194
C      1.978112303165     4.744717623412    -2.437684892118
C      1.028968117676     3.967325513370    -1.737956020443
H      1.532854367204    -0.923169760665     0.291949627090
H      3.097748232839     1.447856754213    -0.661308215275
H      4.761452165396     2.829924911533    -1.888885037991
H      4.054480680820     4.940023661605    -3.033520725642
H      1.662115012242     5.662252664660    -2.930789664614
H     -0.007893859157     4.298237113305    -1.707454006738
C      0.757670832243     2.648916883097     1.813065528421
H      0.714581226697     1.906274110728     2.599979333984
H      1.755135141273     2.984603618475     1.554302915393
C     -0.381510938788     3.296431495770     1.345637966109
H     -0.283676284130     4.138896300003     0.678391087671
C     -1.734113063247     3.085903933269     1.892370151572
O     -2.701124696017     3.672866995966     1.338680767890
O     -1.906506301361     2.337586569820     3.071726395897
C     -3.261607560602     2.153428653067     3.502235816419
H     -3.272222571469     1.546768951341     4.432914248438
H     -3.744821808311     3.132924441364     3.720044781969
H     -3.849887069210     1.612527480682     2.726685894596
Pd     0.143045021001     1.621430022943    -0.112402764853
C      1.836778953935    -0.323719052210     2.347115574307
O      2.518351834990     0.357349848372     3.140296232704
O      2.177020559441    -0.520174094906     1.074864150433
C      0.484065907843    -0.931516049001     2.880683007864
H     -0.081580313219    -0.077728501429     3.272496516733
C      0.725242666813    -1.897228244751     4.021697801716
H     -0.242174163542    -2.284940827858     4.403580052457
H      1.353297514701    -2.743011731237     3.673584278499
H      1.251702519916    -1.379269185545     4.851367186439
N     -0.360343102496    -1.608543217993     1.899632888956
C     -1.202202058445    -0.959036608600     1.079971482990
O     -1.292516417110     0.302043077474     0.996957141166
C     -2.115043735854    -1.799746087444     0.281818984236
H     -1.510445625019    -2.461305910311    -0.363570399429
H     -2.742971598409    -2.384259470931     0.974463269797
H     -2.745937035553    -1.144733754607    -0.346835070804
N      0.024146570371     0.443977523997    -1.825398954699
C     -0.486290118649     0.997949109980    -2.967633734077
C     -0.656288034336     0.226449410824    -4.097626960698
C     -0.298830043072    -1.102321719718    -4.097939897201
C      0.218716879730    -1.638216617042    -2.950166394506
C      0.393463132554    -0.823567057098    -1.804119373150
H     -0.780664128467     2.040208049567    -2.977970047281
H     -1.061368859991     0.674873834819    -4.989478640033
H     -0.420332494162    -1.710875927301    -4.989913993316
H      0.539487782943    -2.658051143651    -2.890994573445
O      0.904208339994    -1.423233150023    -0.779753573000
H     -0.198778000850    -2.588387063822     1.713105803379

