# STO-3G

title

0 1
C      1.276050911757     2.763012708294    -0.248382568606
C      2.586288008642     2.516799617995    -0.712080671441
C      3.404476701286     3.589397425122    -1.121986486712
C      2.917681295081     4.911010034003    -1.086371230209
C      1.605252542890     5.154182987028    -0.639878702977
C      0.781378464563     4.085088050191    -0.225440475878
H     -0.778721952324    -0.980098853197     2.472000456994
H      2.965228516194     1.498722039174    -0.769535826914
H      4.415138124580     3.388781552524    -1.472414424573
H      3.551812946431     5.736732439795    -1.400776452996
H      1.220743851959     6.171676155002    -0.605654126168
H     -0.229543812834     4.298886716295     0.115014122126
C      1.141734880657     1.088909947105     2.300443707747
H      2.081591373400     1.627242672274     2.245697671264
H      1.215439732936     0.009462110652     2.375160461241
C     -0.067287836691     1.736742144013     2.546318212249
H     -0.957198948963     1.155078255631     2.736114937957
C     -0.200559980613     3.169150214647     2.860523473554
O      0.824346717391     3.897070590855     2.932214247123
O     -1.490873263750     3.719659920942     2.943285239501
C     -1.555239768479     5.118053558009     3.258208650852
H     -2.618830613400     5.436834602576     3.306256656543
H     -1.087534292032     5.321644471648     4.248544291316
H     -1.043151480122     5.725343294160     2.477557630363
Pd     0.134486700846     1.223663248790     0.288789431363
C     -0.265232680976    -2.781950749000     3.153760188392
O      0.006676098955    -3.535525503431     4.094342028781
O     -0.622472745708    -1.483729087388     3.342497335506
C     -0.140990937006    -3.307792864719     1.681967334706
H     -0.287351982810    -4.388185452177     1.775185800148
C      1.240259432398    -3.069234178146     1.109834122383
H      1.326475651505    -3.551080598293     0.113790228265
H      1.412524349412    -1.982445034009     0.986110081595
H      2.015232244475    -3.489958266785     1.783988961306
N     -1.140317609978    -2.830933437620     0.701719369689
C     -1.451403620471    -1.579827901848     0.363018514819
O     -1.079259357494    -0.550370215121     1.025210753201
C     -2.438453382646    -1.415558990605    -0.720488260430
H     -2.043000624699    -1.886022329988    -1.637118553655
H     -3.381023918093    -1.891978920257    -0.401968015576
H     -2.604048201284    -0.336550729151    -0.893094521604
N     -0.126549621067     0.870204825716    -1.724354314279
C     -0.489316428327     1.819722961555    -2.639347377492
C     -0.501865797097     1.515012957217    -3.983132455823
C     -0.136709126394     0.264417217250    -4.426262031289
C      0.232408895659    -0.677142645732    -3.503718330540
C      0.249924063813    -0.354121305565    -2.122577312736
H     -0.789154367019     2.806215663593    -2.306897197865
H     -0.790958078858     2.272467917067    -4.692971576484
H     -0.138815976090     0.029883002459    -5.487396090846
H      0.542209326825    -1.661708202747    -3.789000395722
O      0.614611834821    -1.280371963257    -1.320961908654
H     -1.465747747840    -3.559607438716     0.082014832524

