# STO-3G

title

0 1
C     -1.446595378742     2.406775335930    -1.354274092888
C     -1.632690187183     3.552866802030    -0.554157148685
C     -2.043468964702     4.763667288604    -1.147514596172
C     -2.271126253441     4.825911044587    -2.537201892634
C     -2.093693746953     3.675799334162    -3.333396264720
C     -1.683423511807     2.464406918459    -2.741619214206
H     -1.133469463598     1.466044277345    -0.913615065523
H     -1.466608245771     3.489937004930     0.519165180537
H     -2.187478873819     5.648579103914    -0.531525446935
H     -2.588879235641     5.760289991615    -2.995048754999
H     -2.278134642595     3.721903397254    -4.404467626712
H     -1.557066539510     1.566412770994    -3.340582811823
C      1.857479662063     2.266808076453    -0.193290845609
H      0.968781021499     2.826566007370    -0.470949571896
H      2.339521453988     1.725483617409    -1.001349230708
C      2.436283272776     2.353207696191     1.073232055089
H      3.392076638136     1.884172159450     1.252654573992
C      1.963021277816     3.253132607153     2.138968783219
O      2.537039772771     3.211306499893     3.258798418851
O      0.907031758368     4.145506149437     1.886102164758
C      0.437398805677     4.897552362273     3.012561610669
H     -0.395825457103     5.558168013765     2.690227411163
H      0.052594411742     4.217197244097     3.805951634516
H      1.248414269108     5.536614613577     3.429502101926
Pd     1.007490799446     0.563133602187     0.998221439651
C     -1.672732716217    -1.751272170736    -0.802974236938
O     -1.082365713435    -0.914937747362    -1.696470458813
O     -2.816926163050    -2.200779915910    -0.970845241833
C     -0.824887337685    -2.007030885532     0.496809764624
H      0.157973691176    -2.385974886764     0.191797242872
C     -1.445265484660    -3.018736493371     1.437691996053
H     -0.853177729402    -3.071775086565     2.374945494816
H     -2.488740645443    -2.737915069133     1.676894339365
H     -1.453865807827    -4.019691920535     0.958487551307
N     -0.575695497907    -0.751189563383     1.210439271680
C     -1.365447133260     0.220905825368     1.620404625959
O     -0.759413598829     1.374368303849     1.846622749001
C     -2.816899197169     0.098800165517     1.814012193506
H     -3.282318632249    -0.211245839600     0.862874896673
H     -2.997181654059    -0.636616438210     2.613596450374
H     -3.213569756138     1.085476951651     2.115366637945
N      2.464887468795    -0.630686769605     0.296155171373
C      3.474298450450    -1.078215709846     1.101232235682
C      4.429936090707    -1.929404330477     0.590611377783
C      4.378999789815    -2.338293171415    -0.724416577021
C      3.349492973268    -1.892799037692    -1.511862416053
C      2.368139189481    -1.028016718396    -0.972364960893
H      3.527267515977    -0.753227028925     2.133948217648
H      5.228268930095    -2.272528935787     1.228518572472
H      5.136745958848    -3.005093630523    -1.127575906831
H      3.253683819984    -2.182041017703    -2.539351596085
O      1.421309788249    -0.666823852756    -1.748316008905
H     -0.063294373091    -0.759455587340    -1.636622660571

