# STO-3G

title

0 1
C      3.105070479018     1.825330673880     0.797643479163
C      4.412609140861     1.659600973834     0.298125991411
C      5.472165995846     2.427073448897     0.822044572787
C      5.224778903391     3.364035175576     1.845909943262
C      3.917004459912     3.533577249898     2.343234366482
C      2.857253211197     2.766465572938     1.818965026193
H      2.298548830877     1.231872027685     0.378714542341
H      4.597066238658     0.936679102610    -0.492884897449
H      6.481034139067     2.296085840081     0.436736663400
H      6.042563532668     3.955745168326     2.251699653010
H      3.723121431666     4.256138374751     3.133248299098
H      1.843225284768     2.898525485410     2.191898492721
C      1.309393864294    -0.619135923147     2.595306824601
H      1.913242245069     0.282846934897     2.636395682755
H      1.786434918860    -1.484962533509     2.148097819098
C      0.067691863080    -0.707923955276     3.229763539403
H     -0.430476165519    -1.664598451501     3.273908933253
C     -0.509520334219     0.346507199540     4.083752785824
O      0.172876093296     1.360822462496     4.386743464716
O     -1.797668659403     0.146240693568     4.609576826038
C     -2.306544782835     1.206095592611     5.431965075349
H     -3.327243980312     0.943533654915     5.784001649991
H     -1.659221985186     1.359486211932     6.325437862325
H     -2.370067205295     2.157505129590     4.855749363614
Pd    -0.232290080528    -0.135845131140     1.041045660246
C      0.659673369423    -0.343131808321    -2.257289514696
O      1.501273389961    -0.218649988615    -1.198418883245
O      0.869766909290    -1.016742560628    -3.279134311772
C     -0.699239584888     0.407487144796    -2.043326055724
H     -1.461943706110    -0.376544583108    -2.137602896032
C     -0.982983938793     1.440591306732    -3.117968807387
H     -1.918603599346     1.986236871926    -2.879184621531
H     -0.136600219806     2.146118657921    -3.214484029925
H     -1.114059801977     0.930783022300    -4.095773123950
N     -0.800748377812     0.945144973491    -0.696235170374
C     -0.474444910460     2.055467120940    -0.076353107582
O     -0.316712926922     1.938354391753     1.235367502995
C     -0.214777941699     3.351757256758    -0.716722134081
H      0.679240352311     3.247398629464    -1.352893687817
H     -1.109455934852     3.645946674181    -1.287453816648
H     -0.010971809772     4.096163751428     0.075010393839
N     -0.375032719947    -2.104457622778     0.558678234537
C     -1.606811430293    -2.680055487595     0.705293217270
C     -1.764136299494    -4.032176745371     0.495769587301
C     -0.693079157692    -4.815860583650     0.127676104644
C      0.529270987737    -4.220207549132    -0.034786376227
C      0.674299140902    -2.828357054773     0.170403351239
H     -2.453380996526    -2.073097998994     1.004993037284
H     -2.736876708036    -4.478818240418     0.622114870382
H     -0.816606243176    -5.882767653285    -0.038743908040
H      1.394704756228    -4.773831436010    -0.340391126532
O      1.845505910981    -2.341157489110    -0.042165705804
H      1.851887461513    -1.122752932503    -0.741752856650

