# STO-3G

title

0 1
C      0.064318832994    -0.218443889003     3.832469908240
C      1.005272663126     0.065366680628     4.841289799086
C      0.568837002856     0.289490772878     6.162188963799
C     -0.805719061455     0.233970282349     6.471438158928
C     -1.746260089219    -0.038576651667     5.457729499667
C     -1.311733406104    -0.262700441129     4.135811469168
H      0.412579446120    -0.389852654931     2.819305037932
H      2.058710117448     0.123120430326     4.582222961367
H      1.293263004065     0.510471102877     6.942850669223
H     -1.141592716447     0.407643480136     7.491518065136
H     -2.808171900067    -0.072240886938     5.691872080183
H     -2.035030807976    -0.451337822438     3.343886396112
C     -0.333988131992    -3.271310059960     2.105163004615
H     -0.651946784563    -2.604408578994     2.901788711809
H      0.651558640768    -3.708609933521     2.227598948561
C     -1.191452063552    -3.671595671283     1.079113251581
H     -0.871740073363    -4.441533441579     0.393979622776
C     -2.619913384460    -3.313405367133     1.002616660714
O     -3.165901510654    -2.684178100553     1.946919345830
O     -3.357436791401    -3.749590571627    -0.111417497235
C     -4.736960704835    -3.355830736294    -0.137862136232
H     -5.216016531727    -3.747642814591    -1.060774077425
H     -5.283837488290    -3.769120779072     0.740199501677
H     -4.830998910983    -2.245594339517    -0.140646585627
Pd     0.053312109353    -1.875376480839     0.387148741155
C      2.701387234506     1.077186971984     0.871419280447
O      2.769597107148     0.219985774305     1.922702120794
O      3.026090906021     2.270951100616     0.967410106015
C      2.094636937331     0.448610777609    -0.435771097410
H      2.681161071970    -0.444594666513    -0.683127079298
C      2.135578923447     1.378433678119    -1.630582522112
H      1.605968682351     0.912441252052    -2.487397255769
H      1.658313861099     2.346395606553    -1.385259749022
H      3.189677627374     1.571660894513    -1.919039437908
N      0.721103446026    -0.012286092727    -0.214822575203
C     -0.351495831360     0.564920793071     0.289769157879
O     -1.295505303802    -0.269433146327     0.689094919757
C     -0.534504242273     2.015049753511     0.439523008152
H      0.278992827593     2.417544692744     1.066897110435
H     -0.538638976691     2.469061079962    -0.563397482232
H     -1.505626118573     2.194056252727     0.936559747837
N      1.561597698377    -3.073231567750    -0.196482203267
C      1.477335637395    -3.853619484694    -1.314888572123
C      2.555830319439    -4.621724764621    -1.696103477651
C      3.723244754903    -4.609857084424    -0.963738671996
C      3.795944009125    -3.806390360417     0.144103465628
C      2.685233895194    -3.013862086228     0.518492695478
H      0.559450066440    -3.876361560871    -1.890845791686
H      2.480468612589    -5.241879122931    -2.574530496241
H      4.571409533092    -5.220603131474    -1.262026291025
H      4.679369035623    -3.749748078940     0.748342714641
O      2.821986653375    -2.267109402523     1.544203341852
H      2.694854229446    -0.793644563724     1.745918834529

