# STO-3G

title

0 1
C     -1.550117709672     2.367931749513    -1.345281707020
C     -1.770011331851     3.471738608087    -0.494211668754
C     -2.327218401761     4.659296000988    -1.009475983994
C     -2.667912588001     4.745168400157    -2.374443986394
C     -2.452274770036     3.641329535731    -3.224321197015
C     -1.895196491435     2.453639084827    -2.709222826141
H     -1.127029116944     1.444312042966    -0.961836922908
H     -1.508137249325     3.393901163012     0.558741053061
H     -2.494130033813     5.510016727324    -0.352317243858
H     -3.097594358334     5.662146791242    -2.772213046185
H     -2.716213242491     3.705914895153    -4.277750311405
H     -1.728742615810     1.598517410587    -3.360136340865
C      1.798030362809     2.195269324333    -0.324020837287
H      0.911234576553     2.785181165904    -0.536142992199
H      2.225144882129     1.669792016750    -1.171733700617
C      2.447982572859     2.243206890555     0.911089343691
H      3.399571762426     1.745664890210     1.026902673571
C      2.059462744622     3.136071461703     2.016436835595
O      2.687824910174     3.052695827285     3.104555158172
O      1.046108550486     4.091470656682     1.823845459059
C      0.666255326470     4.844398774646     2.983006986793
H     -0.141193929310     5.556515548454     2.708694378116
H      0.277827500670     4.169422013764     3.779170011932
H      1.528423669979     5.428906600622     3.376738910411
Pd     0.991739869133     0.493826805081     0.899392753952
C     -0.718204478620    -2.011662523547    -0.705379183637
O     -0.481648168807    -0.754121334016    -1.162234461700
O     -0.765390161948    -3.041049042415    -1.398020098307
C     -0.857280001744    -2.071689022224     0.855140373261
H     -0.041158257213    -2.731528650974     1.177872592419
C     -2.156164401416    -2.707471617213     1.315037437497
H     -2.234684113040    -2.648058186509     2.419892263315
H     -3.023617619962    -2.213794944106     0.838486786263
H     -2.169255196651    -3.777670507998     1.018917834443
N     -0.618537256949    -0.770185819028     1.457894003171
C     -1.326539337681     0.299098808661     1.735792338072
O     -0.630823428543     1.424940777399     1.828541891260
C     -2.788201982004     0.345643133558     1.874766395631
H     -3.233849484168     0.093010917843     0.898754001775
H     -3.085525449036    -0.356601761827     2.669579909021
H     -3.079670796099     1.375158161922     2.152470335268
N      2.433097144267    -0.720962977126     0.144576167211
C      3.302559274048    -1.269161176776     1.046717394513
C      4.367994298710    -2.022189442649     0.605269976370
C      4.566180261677    -2.239263515141    -0.740183238366
C      3.675573471692    -1.698691362403    -1.629132127337
C      2.578317797728    -0.938646481776    -1.161678463750
H      3.160684902436    -1.094727012944     2.107119559254
H      5.053081447024    -2.442969810624     1.323183673113
H      5.406838608685    -2.833261712531    -1.089031443100
H      3.766454908444    -1.849156844372    -2.686440237191
O      1.769065583357    -0.497615878732    -2.059305225940
H      0.417166796804    -0.595774468982    -1.731438664873

