# STO-3G

title

0 1
C     -1.538516378809     2.242272413859    -1.349646034803
C     -1.816292208672     3.356515735691    -0.529688501452
C     -2.467497191194     4.483818324551    -1.069621508879
C     -2.843583176101     4.498987127183    -2.427861206339
C     -2.569155392002     3.384624974023    -3.246490288410
C     -1.918422173483     2.257100101818    -2.706775862438
H     -1.044403221519     1.362812831592    -0.947977394358
H     -1.527609999909     3.333811171540     0.519012508906
H     -2.679767139204     5.342824435228    -0.436680952316
H     -3.345647795618     5.369615037286    -2.844602542010
H     -2.859519368362     3.394928938338    -4.294899038899
H     -1.705657546885     1.393987969796    -3.333154068092
C      1.808763842361     2.233981379015    -0.326649311163
H      0.932124241045     2.848485718147    -0.509584972588
H      2.211422181924     1.720203972542    -1.193826470277
C      2.471073110408     2.228369378271     0.903320192645
H      3.412350214338     1.706407848053     0.992238205834
C      2.113420002168     3.094960408849     2.039407488574
O      2.743239753611     2.957089868116     3.121276633036
O      1.129406652204     4.087273949018     1.882902676028
C      0.784546205914     4.819551422697     3.066026673777
H     -0.001698990009     5.564756299492     2.819426152835
H      0.381883588646     4.135577548149     3.847209635417
H      1.668806305732     5.364846969828     3.466990279831
Pd     0.979579984909     0.509630316223     0.846930757939
C     -0.405031653718    -2.077768664523    -0.659702393318
O     -0.364441913442    -0.863113165926    -1.263657005269
O     -0.007354344044    -3.149690667393    -1.146974801645
C     -1.003251314753    -2.008495380849     0.782054934051
H     -0.488767857546    -2.790248705740     1.353779480641
C     -2.488292878280    -2.320359723030     0.767739423731
H     -2.888958331243    -2.333337021966     1.799978751010
H     -3.022609188713    -1.574963022690     0.144895219036
H     -2.652408279293    -3.325637525402     0.325210736238
N     -0.698870982797    -0.706145887899     1.354991903077
C     -1.303992469206     0.346821438658     1.838699976970
O     -0.571666535478     1.456294609462     1.862091031866
C     -2.670035541693     0.383823412525     2.380250412829
H     -3.383077891364     0.223495835433     1.557450977691
H     -2.750210780378    -0.389384448576     3.161313515278
H     -2.842970778320     1.382479165834     2.821290525005
N      2.438559654454    -0.694742530427     0.102074399331
C      3.255624934388    -1.275842569328     1.032414016401
C      4.357572623917    -1.996063456384     0.627441485622
C      4.640524666151    -2.154667869827    -0.711010454997
C      3.800003228531    -1.586080379544    -1.630451320666
C      2.664707687326    -0.860171791251    -1.200873594381
H      3.046974273499    -1.147711112289     2.088310937511
H      5.001181442488    -2.441628341496     1.368136436343
H      5.507202975127    -2.726770980481    -1.031357807301
H      3.952901819909    -1.697222286344    -2.685094420285
O      1.896132372077    -0.399382442870    -2.122435627783
H      0.512008849541    -0.647988524969    -1.821215255783

