# STO-3G

title

0 1
C      0.304689682666     3.298345465149    -1.253340319368
C     -0.400136141186     4.315081997334    -0.574991745162
C     -0.745606348761     5.503950428400    -1.248849290365
C     -0.387826946085     5.678556607687    -2.601004128750
C      0.317725348557     4.663940335428    -3.279177513815
C      0.665312540453     3.476140019868    -2.604885084018
H      0.588802742370     2.382913998355    -0.742315643790
H     -0.673597768032     4.169252211812     0.467098274926
H     -1.286965243412     6.288663798888    -0.724450116162
H     -0.653837728754     6.596597036700    -3.120899604779
H      0.596538028559     4.798362363186    -4.322144728078
H      1.213991275649     2.692653246109    -3.122722788094
C     -2.283127681370     0.926770407210    -0.965482370800
H     -2.312423994897     0.122165540565    -1.692439979391
H     -1.732289353382     1.813702528826    -1.264087297797
C     -3.069418681010     0.927004974111     0.190157234174
H     -3.075419430518     1.810026731317     0.813640040891
C     -4.091331939009    -0.080823957486     0.521358065869
O     -4.223253070363    -1.106938401501    -0.196247261951
O     -4.824381330220     0.074522041623     1.709874941812
C     -5.795916049798    -0.944634191991     1.985872943925
H     -6.314016014324    -0.710793277438     2.941030474503
H     -6.561450208224    -0.990608170489     1.178018396459
H     -5.308189236117    -1.940427167754     2.089346441456
Pd    -0.952066518445     0.275650051346     0.717056288565
C      2.375943953481    -0.431458809439     0.243247281719
O      1.550011860591     0.332681145063    -0.515656533221
O      3.310134725469    -1.132689701652    -0.179085837204
C      2.039615613445    -0.326474953039     1.775225195450
H      2.876100954618     0.212832889598     2.250635411476
C      1.928064815853    -1.689902939270     2.414359117185
H      1.695085005904    -1.578129134552     3.493331219701
H      1.110038105602    -2.259814024554     1.928104061822
H      2.881172082260    -2.248044543987     2.302992657465
N      0.763391709473     0.340172972710     1.956768892965
C      0.527489246902     1.607784853629     2.194098098180
O     -0.672374996843     2.042377302770     1.836193717559
C      1.519203255615     2.537299065726     2.754835765262
H      1.854181945226     2.136947971640     3.726602497768
H      2.354870532050     2.622695727620     2.039935752365
H      1.039055064205     3.523661278620     2.889861726516
N     -0.972400340378    -1.579818217281    -0.098636385571
C     -1.583700357363    -2.577695930846     0.608741946093
C     -1.693101632926    -3.839950700841     0.067504869451
C     -1.214055920372    -4.105815218506    -1.195677638119
C     -0.603811908453    -3.096494912098    -1.891462986913
C     -0.480853149951    -1.811355710349    -1.313981166882
H     -1.978273754038    -2.373593766353     1.597226575553
H     -2.181781472833    -4.617224545280     0.630544038547
H     -1.312817967414    -5.097227495100    -1.629411111364
H     -0.200264503735    -3.245770192247    -2.872542719828
O      0.136225349630    -0.929200176153    -2.019757850670
H      1.005996278972    -0.139836866240    -1.327884570148

