# STO-3G

title

0 1
C     -1.966020240125    -3.084071461295    -0.836714241312
C     -1.476012973716    -4.100463377590    -1.680941021734
C     -1.709123036743    -5.453876329996    -1.368724756591
C     -2.436737194834    -5.793382428512    -0.210763453338
C     -2.932834215624    -4.778472009133     0.631213471094
C     -2.698786918403    -3.424743182251     0.318135032908
H     -1.771212090636    -2.046539532158    -1.089188633285
H     -0.915479328905    -3.833961016076    -2.574442806842
H     -1.329357853556    -6.234680218546    -2.023243333274
H     -2.619060211345    -6.837934844119     0.030523423929
H     -3.500732289666    -5.039607914783     1.521102379421
H     -3.097315207783    -2.649831652807     0.969585292119
C     -2.010766719256     0.706842258836    -1.102517549900
H     -2.337027316487     1.650777803396    -1.531609443698
H     -1.553652749451     0.008984264971    -1.796263145536
C     -2.341091508731     0.343445558171     0.208164729285
H     -2.120233507446    -0.655056725363     0.547830128141
C     -3.222515556010     1.124780216917     1.094677421271
O     -3.880280795452     2.095209433652     0.634797660930
O     -3.428588925843     0.655422116283     2.403608168371
C     -4.313040791789     1.441571211883     3.214844712230
H     -4.391381015472     0.985893482456     4.225259257404
H     -3.925730752960     2.479912571146     3.329324504472
H     -5.333309949343     1.476407678454     2.769044281237
Pd    -0.282716914739     1.279172610380     0.163235712177
C      2.692645437962     2.029450948327    -1.282747954112
O      1.449165247152     1.974664837352    -1.828456965671
O      3.748571141002     1.708144926137    -1.852559511496
C      2.665037863420     2.569483069334     0.192175269518
H      3.115467496683     3.576200265162     0.172738945650
C      3.484511827519     1.699938460424     1.115742571372
H      3.447660817172     2.111582743736     2.145380895255
H      3.065052737139     0.673190997083     1.125120035198
H      4.540670911744     1.662600396188     0.775867409573
N      1.303178643078     2.569548000914     0.696073044010
C      0.448731275790     3.567391159071     0.735660063197
O     -0.828459391730     3.222769665046     0.748417779639
C      0.839668738500     4.985165740502     0.736866463255
H     -0.077270195791     5.594245439499     0.833852284890
H      1.505581154729     5.153753399945     1.599514762080
H      1.343768355689     5.213760783444    -0.217771621246
N      0.576538234777    -0.535608988284    -0.152393904710
C      0.787045817918    -1.310324018898     0.954442725387
C      1.322107551732    -2.571292238392     0.819832310764
C      1.653136224204    -3.065289304837    -0.422015690920
C      1.455691983203    -2.268160565864    -1.518462532879
C      0.907249668614    -0.973794138662    -1.365894164083
H      0.518635179837    -0.934261952036     1.934824681645
H      1.466633569106    -3.183115869892     1.694951450868
H      2.065775758225    -4.064766210373    -0.529790857558
H      1.710256853996    -2.591291240409    -2.507632721433
O      0.763292942622    -0.286848636361    -2.443582551760
H      1.153647611818     1.068812645352    -2.308685975572

