# STO-3G

title

0 1
C     -0.371769339538     2.845956452932    -1.499790180742
C      0.661862070237     2.677888086824    -2.443529761954
C      0.590654626420     3.348752953556    -3.681230100194
C     -0.506250500445     4.183521916837    -3.973772543712
C     -1.535465748134     4.353741792581    -3.025815105292
C     -1.467030726701     3.685209205732    -1.787935525842
H     -0.345439097845     2.339282759497    -0.537821313348
H      1.516278890264     2.044418420983    -2.219641260136
H      1.387782881915     3.225034532497    -4.410561811890
H     -0.557191095839     4.700851171513    -4.929127515879
H     -2.380347668409     5.002417131392    -3.245821143598
H     -2.255149349343     3.820516424639    -1.047942348554
C     -2.683117960333     0.169644791747    -1.091644449507
H     -2.593296286840     1.165852610627    -1.514708311700
H     -2.396113536241    -0.659984871004    -1.725281846381
C     -3.333483588715    -0.073135014596     0.120398690905
H     -3.476387491242    -1.088987805305     0.460814253829
C     -3.998795751483     0.976385537756     0.917127354548
O     -4.064104734906     2.153790258525     0.467659169330
O     -4.637045577532     0.615423983674     2.115951723291
C     -5.240245933809     1.689174310750     2.850425258714
H     -5.701092960230     1.286322010825     3.777710056990
H     -4.475734730700     2.445693708188     3.139843952809
H     -6.038916989641     2.179899750920     2.249247676205
Pd    -1.097001472520     0.048472818737     0.527103526550
C      2.749081377551    -0.109173507247     0.766823431132
O      2.197502968362     0.606509253831    -0.281349370037
O      3.844780657743    -0.662494647730     0.675807085657
C      1.853382083449    -0.104612004203     2.047664988089
H      2.416611024962     0.451044767152     2.815012196278
C      1.592750587809    -1.500341483483     2.561024974568
H      0.954898026113    -1.455362032622     3.467972119127
H      1.065095266902    -2.095893619928     1.788939367103
H      2.549533901225    -2.003174664794     2.814820943919
N      0.575342538600     0.508457047415     1.733575550057
C     -0.102629276845     1.453061283888     2.358813187316
O     -1.278786585518     1.738517703720     1.859207186002
C      0.396103018149     2.153643012073     3.551526524950
H      0.567341611710     1.406216288746     4.345221485387
H      1.326200502478     2.682106449814     3.284035918967
H     -0.371504975709     2.880159635498     3.877608285491
N     -0.557639186103    -1.643378812478    -0.415326640654
C      0.366014954220    -1.727645206406    -1.419190987785
C      0.743618456483    -2.961752633519    -1.897115310364
C      0.199113968004    -4.117093257904    -1.381021180805
C     -0.738936716271    -4.018575455811    -0.387613252754
C     -1.132240356000    -2.748467097621     0.103686299129
H      0.787814141115    -0.827870420700    -1.848434572177
H      1.479082175959    -3.020570803865    -2.682989321190
H      0.502879865948    -5.089244174987    -1.760028788530
H     -1.204511615412    -4.881135318382     0.044453202391
O     -2.007915363165    -2.711602893935     1.017131308102
H      1.320980590443     0.969638389907     0.011915481852

