# STO-3G

title

0 1
C     -1.129110207452    -0.648730084031     2.112212234154
C     -0.933640406521     0.031198541086     3.332226742293
C     -0.470986635297    -0.665339817578     4.466876139744
C     -0.204634320267    -2.047027136139     4.383037327574
C     -0.410826251773    -2.730843490902     3.167691165519
C     -0.875996819843    -2.033297465864     2.035167388176
H     -1.486387254199    -0.113883684031     1.236962661105
H     -1.155599317146     1.094743224288     3.402570688454
H     -0.326410497011    -0.139086011420     5.408005899403
H      0.150823890076    -2.586740976207     5.258142267928
H     -0.217832302786    -3.799332438680     3.104987103897
H     -1.061557953844    -2.557515329936     1.101603366500
C      2.104237569013     0.322702619357     0.986317997657
H      3.162870657544     0.268727681975     0.749707290893
H      1.670885334843    -0.533192909821     1.496738846954
C      1.350231841873     1.466816474469     0.797484158769
H      0.325442040305     1.487979071434     1.138463491373
C      1.877585180174     2.749640702216     0.306503903520
O      2.994265677790     2.782795175923    -0.279064245151
O      1.060792119143     3.890197836712     0.389655148740
C      1.591223758665     5.088474921700    -0.192659334294
H      0.859724978769     5.914634669015    -0.061312807234
H      2.543189467336     5.382922159014     0.304462334660
H      1.767267823972     4.953276677038    -1.283516005914
Pd     1.054550609121    -0.112618652376    -0.999468517656
C     -2.125529522127    -2.071612267802    -2.275273989117
O     -2.389356914773    -1.448051538472    -1.096231156873
O     -2.724995128423    -3.098886013593    -2.629065578045
C     -0.927593652240    -1.448774707153    -3.079435717634
H     -1.134738077132    -0.383951071438    -3.235965224782
C     -0.708300636698    -2.084652882835    -4.436361468203
H      0.211867521964    -1.671339383724    -4.899346795271
H     -0.610197839161    -3.182758349355    -4.340106791237
H     -1.573761262439    -1.867138882411    -5.096072353678
N      0.307468768122    -1.517857580334    -2.294233053733
C      0.898539706173    -2.500736120122    -1.642721866715
O      1.730705299685    -2.118080684357    -0.695242330780
C      0.688888487654    -3.930327548194    -1.913553925648
H     -0.379996517901    -4.170260347089    -1.785660066400
H      1.031024896884    -4.137931959718    -2.939677954858
H      1.291067203515    -4.514365274579    -1.193953243983
N      0.206203787733     1.514296308252    -1.851982813457
C      0.881403053200     2.289996291415    -2.752362852337
C      0.231596738169     3.333861929539    -3.375873378772
C     -1.091174301623     3.605417435654    -3.099039926581
C     -1.755514248260     2.803038415741    -2.208053619206
C     -1.078818565424     1.728652122993    -1.584133288981
H      1.925998493406     2.090984084709    -2.962518690566
H      0.770965765213     3.946655887639    -4.079231367288
H     -1.599998404489     4.434226086488    -3.583940076114
H     -2.785165812176     2.960985475537    -1.957360377983
O     -1.755070758242     0.991014271533    -0.785788141184
H     -2.050171803789    -0.484623624012    -0.962808066609

