# STO-3G

title

0 1
C     -0.379001470705     2.368536318570    -1.951538544290
C      0.593339782951     2.562407726619    -2.952468270882
C      0.773625653360     3.842616131512    -3.512734666591
C     -0.015734040344     4.923495401981    -3.071434385137
C     -0.982316495904     4.727900153949    -2.064291665868
C     -1.163741299427     3.449845715756    -1.500775892233
H     -0.542366916527     1.379332167470    -1.528048066066
H      1.209357315340     1.731109008927    -3.284952480347
H      1.524151787017     3.997116889180    -4.284310670641
H      0.122926686074     5.910918667081    -3.506051031646
H     -1.588430962411     5.562566971022    -1.719542093428
H     -1.896160582966     3.298819151020    -0.709734156342
C     -2.885462474481    -0.116330881151    -1.106263612143
H     -2.899145017301     0.855638463584    -1.593068347896
H     -2.575823725241    -0.962586655675    -1.706898917429
C     -3.455002527737    -0.324379412149     0.151917954974
H     -3.507143450679    -1.322594862646     0.563007981920
C     -4.146162611614     0.728449854297     0.921912109202
O     -4.323999896336     1.865004175253     0.403625538195
O     -4.680474542428     0.408413219703     2.181561445761
C     -5.319611412320     1.484661409515     2.881238463083
H     -5.690916741130     1.116036080071     3.861461038097
H     -4.600210395308     2.313939192148     3.069031820918
H     -6.188849583688     1.871509946381     2.302549484184
Pd    -1.209347883662    -0.036324188061     0.415354990799
C      2.631716647742    -0.102826734948     0.490573929779
O      2.088304476760     0.534058789044    -0.609411474639
O      3.686406074316    -0.734592368315     0.416260515657
C      1.796731192803     0.089795381400     1.795706309398
H      2.383013773698     0.767615305306     2.438600384546
C      1.589500870886    -1.211569699647     2.533124454320
H      0.999451673658    -1.032505379548     3.455663054070
H      1.032563539267    -1.924844209596     1.891972446108
H      2.567146949056    -1.659520288451     2.809158515753
N      0.492327205517     0.628618700878     1.459485000834
C     -0.187100949782     1.630366068947     1.984452493799
O     -1.404759363600     1.794215922854     1.529551873590
C      0.355301807893     2.524921121456     3.017732879645
H      0.609735545660     1.917400596891     3.903042435726
H      1.241963381167     3.035545806963     2.606476896614
H     -0.421059448381     3.267658757178     3.280096055607
N     -0.641836934344    -1.804527860956    -0.360871804903
C      0.266060851062    -1.957249073959    -1.371099070871
C      0.692916752432    -3.217448895350    -1.722285335341
C      0.216534211995    -4.332873788816    -1.069839044906
C     -0.702344982490    -4.168771832094    -0.067629034816
C     -1.143578657144    -2.871562374876     0.295584471092
H      0.633198039239    -1.092445059656    -1.908245992482
H      1.415817693936    -3.328092359273    -2.514190692778
H      0.559925692863    -5.325680598930    -1.348059144837
H     -1.112083245316    -4.998809200575     0.471468774577
O     -1.989836942578    -2.776919284473     1.232165840358
H      1.262623575064     1.017771146599    -0.353502530524

