# STO-3G

title

0 1
C     -1.001086266115     2.058088747208    -2.312687251913
C     -0.237029002293     3.188261244830    -1.951177160303
C     -0.521240090497     4.442272643654    -2.528438016275
C     -1.563379837363     4.572139029075    -3.469361017850
C     -2.322566506815     3.443401424245    -3.837506433565
C     -2.038363456995     2.189662478911    -3.259450408668
H     -0.779959395515     1.089903452814    -1.870930970165
H      0.573104834678     3.075107855631    -1.235821083322
H      0.072281188460     5.311271010265    -2.251726129018
H     -1.776489653182     5.540870867912    -3.917045734083
H     -3.122982234526     3.536734870152    -4.568963809683
H     -2.625362287862     1.314391560961    -3.537475761102
C     -3.175223114550    -1.500037468323     1.083910926546
H     -3.055155487131    -1.881155644246     0.074221129950
H     -3.322156080065    -2.224110982708     1.878895496907
C     -3.368875306054    -0.145981726003     1.318477177805
H     -3.562113488365     0.208813534203     2.319279169573
C     -3.508219675450     0.881640859836     0.272083511572
O     -3.476028082771     0.540078390716    -0.939374727695
O     -3.894829287397     2.175873798202     0.660206689009
C     -3.976120035555     3.152603187153    -0.386830720984
H     -4.340144030895     4.113959189752     0.033544845226
H     -2.973829265250     3.336872037759    -0.829812096345
H     -4.682974273095     2.831292709642    -1.185073414680
Pd    -1.120887486250    -0.703912796584     1.736102415454
C      2.369117835502     1.288599627457     1.229753377817
O      1.533672981574     1.386814441126     0.174539220754
O      3.307040414071     2.082170562005     1.415458044816
C      2.059169752940     0.197016437071     2.317869129922
H      2.603784870597     0.534809803527     3.211634300197
C      2.578143704127    -1.173597281856     1.957462071814
H      2.324638928185    -1.892806895262     2.763535557660
H      2.121749976369    -1.520147030309     1.014328603921
H      3.680553862903    -1.142004325723     1.832636445272
N      0.630214094731     0.091514734895     2.588166381885
C     -0.090042831605     0.919155017880     3.306648950886
O     -1.402319073988     0.763717513355     3.205296883923
C      0.467242213278     1.976589908860     4.164981603073
H      1.102638858683     1.504315369388     4.932683433586
H      1.047091851492     2.671314899173     3.532359292355
H     -0.369647234961     2.517164843045     4.644052798830
N     -0.469134866842    -2.141725134708     0.462690811446
C     -0.605689769818    -3.478197789483     0.713518238670
C     -0.217525800002    -4.397442282346    -0.236749105521
C      0.314812897932    -3.984240351109    -1.439251106141
C      0.466656176042    -2.641267833374    -1.662696922070
C      0.067397049213    -1.709793253433    -0.675657714232
H     -1.030209318958    -3.811535663647     1.653154336934
H     -0.336712258915    -5.449849392530    -0.037449421097
H      0.617166209727    -4.708615015833    -2.190969141565
H      0.885397026667    -2.257561632213    -2.571775788831
O      0.279407180888    -0.476996882218    -0.917913125367
H      0.950233490770     0.591283952031    -0.139026185166

