# STO-3G

title

0 1
C      3.030176345831     1.775416111999     0.697591094482
C      4.299068444716     1.599832771558     0.110038514004
C      5.385847738459     2.395698332383     0.524030311437
C      5.203926602842     3.370744089762     1.525914443357
C      3.934492693304     3.549422278833     2.111574300118
C      2.847369787704     2.753649412985     1.697419413821
H      2.203171097099     1.158845943535     0.360139160672
H      4.431516384560     0.846849995488    -0.663068118178
H      6.365335798420     2.256914740690     0.071482767671
H      6.042819851433     3.984517449126     1.847114358795
H      3.791805047566     4.301496396250     2.884809531639
H      1.862295918341     2.893076555225     2.139038620581
C      1.327151354070    -0.622193262984     2.639340204381
H      1.912177936121     0.290227896162     2.713671073084
H      1.830948059191    -1.470626949700     2.186909432568
C      0.068344275116    -0.744190142686     3.234701562850
H     -0.411670599214    -1.710980858904     3.246983501321
C     -0.552733763655     0.283620793275     4.090145270852
O      0.106922796152     1.296640847056     4.444201998121
O     -1.856176653066     0.055642608875     4.564844800770
C     -2.405352444402     1.086988820243     5.397423658598
H     -3.434588317830     0.804080069709     5.706206917889
H     -1.791279002395     1.222152878096     6.316931195105
H     -2.459420523025     2.053248045601     4.845561435230
Pd    -0.174831652876    -0.141322950072     1.047599265376
C      0.514809246583    -0.575992950759    -2.145122169710
O      1.523722913997    -0.390968551586    -1.257253862451
O      0.401041951243    -1.528168561824    -2.935828480095
C     -0.556583907034     0.557246604175    -2.068966732651
H     -1.501697406062     0.095973159817    -2.379500697454
C     -0.223161273561     1.679719921905    -3.034485205501
H     -1.028825433971     2.439303967243    -3.035668010010
H      0.749535244368     2.135091915593    -2.757901747121
H     -0.137834794467     1.272072482204    -4.063962389107
N     -0.659741970769     1.006499674305    -0.687734522767
C     -0.559471918490     2.100180432985     0.022251172319
O     -0.362632391515     1.909554942005     1.322722664472
C     -0.690510218570     3.473501970579    -0.484961235646
H      0.171497923980     3.696828394455    -1.131913976855
H     -1.649739186309     3.551540812221    -1.021505860400
H     -0.684329680723     4.164765518362     0.377797287468
N     -0.324282704660    -2.114673994854     0.574945204327
C     -1.578989016954    -2.648672490494     0.681196930134
C     -1.766625109503    -4.004190318134     0.525547499074
C     -0.703547964172    -4.832630743326     0.242151249991
C      0.542228377139    -4.279240115552     0.113031164365
C      0.718217817922    -2.883735612209     0.262025063140
H     -2.420166209634    -2.006177758511     0.914423495135
H     -2.757341892424    -4.417181320970     0.621355717409
H     -0.851422900476    -5.901528977986     0.113115004131
H      1.402449300477    -4.867757896069    -0.135409619660
O      1.905989644542    -2.431808479294     0.070277917655
H      1.881129661167    -1.257815123081    -0.763534501082

