# STO-3G

title

0 1
C     -0.071040781552     2.853541063728    -1.659079563359
C      0.726684570739     3.120539980091    -2.790226689689
C      0.390906534330     4.178514326568    -3.658842883265
C     -0.743439051100     4.973166157604    -3.396118557862
C     -1.539518278448     4.709646138018    -2.263337225984
C     -1.203548188263     3.652344785489    -1.394216435939
H      0.202746442823     2.038800807636    -0.995473761651
H      1.601278801061     2.505341701051    -2.988042144663
H      1.006869793180     4.381239628224    -4.532249544079
H     -1.004160390511     5.788886856888    -4.067040707721
H     -2.415856053775     5.321004370521    -2.058168817908
H     -1.810258146916     3.447628244877    -0.514216883737
C     -2.042538015561    -0.028653271141    -1.355875025308
H     -1.969660750693     1.017139565920    -1.641169490887
H     -1.428414592577    -0.715461940821    -1.928767161559
C     -2.994337852306    -0.481970868555    -0.437299989518
H     -3.119355297543    -1.544459756105    -0.293451720755
C     -4.041568968524     0.364759322443     0.163623358816
O     -4.205659276937     1.548094410320    -0.235410471875
O     -4.899266103546    -0.212863917384     1.115822685097
C     -5.897102318104     0.659362103414     1.665401589477
H     -6.507975040979     0.101498788701     2.407221421879
H     -5.423360276596     1.524597294126     2.183288476237
H     -6.577089017055     1.035471543569     0.867276408917
Pd    -1.028147193509    -0.094220600229     0.635288988420
C      2.385650679364    -0.016034652787     0.773731408428
O      1.585123132098     0.365760683838    -0.256661425028
O      3.473986795583    -0.603598626286     0.663104699889
C      1.781132941252     0.387364888901     2.164745904931
H      2.362921636399     1.251778688372     2.527311396024
C      1.908417982176    -0.729797249543     3.172944055292
H      1.476048725017    -0.407917792076     4.142734875702
H      1.353125808576    -1.618891800400     2.810164443956
H      2.975538167545    -0.997552217243     3.321075028923
N      0.366183689226     0.681111266008     2.024391075546
C     -0.232104137880     1.846505002730     1.944928498930
O     -1.427475712269     1.833049791258     1.375811072204
C      0.370374554216     3.113682273296     2.383283550360
H      0.636270660701     3.018805632580     3.449371230140
H      1.256248609730     3.309100867599     1.755899581424
H     -0.371746556128     3.920762607076     2.240698436512
N     -0.449502798413    -2.005012099772     0.272629112238
C     -0.897632987599    -2.948945246709     1.154343844022
C     -0.620151676882    -4.280200240951     0.936796837361
C      0.113442865640    -4.675046508236    -0.160060754519
C      0.570231703366    -3.714903454668    -1.023238843549
C      0.291842086601    -2.349643866475    -0.779694547775
H     -1.484606445264    -2.647923348682     2.014429545143
H     -0.983636579023    -5.018542232489     1.632750742080
H      0.333046831947    -5.725404571845    -0.332533872031
H      1.164785654316    -3.958660053173    -1.881054508713
O      0.795031533300    -1.507978211259    -1.610707520212
H      1.351566592129    -0.362909007095    -1.003399181895

