# STO-3G

title

0 1
C     -0.916088855331     2.713303105328    -2.482970838339
C      0.453155022364     2.446423432943    -2.697044306014
C      0.980557502443     2.451279852242    -4.003190638762
C      0.141388900784     2.723792490394    -5.102503356073
C     -1.223663361621     3.001283530088    -4.891291468889
C     -1.750012789545     2.999879514266    -3.583534001617
H     -1.316663296568     2.698318791491    -1.472185697291
H      1.093556250968     2.228714603785    -1.846711925745
H      2.037573637182     2.248692519374    -4.163168972036
H      0.548959053374     2.730273573174    -6.111168937396
H     -1.870796048987     3.225797343908    -5.736582198515
H     -2.802100923051     3.229969983775    -3.429208502017
C     -3.505568971103    -0.644091929631     0.086772925862
H     -3.578055466849    -0.502307991441     1.162695294862
H     -3.419488783754    -1.670446065892    -0.248032165284
C     -3.709868406005     0.413517222021    -0.805563787973
H     -3.759224377614     0.214088601775    -1.865554434202
C     -4.143309224997     1.762350817769    -0.393550622081
O     -4.496463326152     1.975010126591     0.796689379699
O     -4.295200122426     2.745931810523    -1.385537874822
C     -4.690567464917     4.044132062374    -0.920227944109
H     -4.765842355838     4.739766819341    -1.783402179861
H     -5.685523782595     4.000074983246    -0.421194949426
H     -3.938564703563     4.453511242131    -0.207331004179
Pd    -1.485191944173     0.149423338180    -0.394472302861
C      1.235991888937    -1.668321625749     0.679901836904
O     -0.043650349519    -1.715138017066     1.128919651778
O      2.033011413932    -2.619947332871     0.636288695661
C      1.617415553061    -0.255776233812     0.116174359175
H      1.805651097248    -0.429906287036    -0.952103252258
C      2.894150667010     0.309194505380     0.711216832704
H      3.050647422947     1.346847714778     0.351375420873
H      2.854717308969     0.286886497960     1.816252494090
H      3.757824525776    -0.310252824511     0.389625430620
N      0.497577287964     0.667583019094     0.203395639944
C     -0.023330131558     1.426773953509     1.139878455670
O     -1.308920151646     1.710193190461     0.983190447068
C      0.687239045912     1.929650704756     2.323402064688
H      0.974982227256     1.065414911625     2.943815504140
H      1.557920042489     2.512700914690     1.983482674962
H     -0.002247643718     2.579182624038     2.893586377040
N     -1.307671253968    -1.299988153549    -1.815934063671
C     -1.141056884698    -0.901884631561    -3.114644455394
C     -1.081455934200    -1.839908783016    -4.121497097822
C     -1.180748703984    -3.183064373370    -3.838683728039
C     -1.333178411128    -3.566995691460    -2.533512509295
C     -1.379360800739    -2.594456558932    -1.507218811149
H     -1.078280652082     0.148165450167    -3.356622294603
H     -0.956688229946    -1.511883012304    -5.140554212844
H     -1.133649956001    -3.923065653410    -4.633207851889
H     -1.400033259085    -4.598296927161    -2.249457164180
O     -1.493827808559    -3.045496646625    -0.308437852256
H     -0.711167207063    -2.413644235649     0.663405357985

