# STO-3G

title

0 1
C     -1.396337631623    -1.595950363257     1.820539773819
C     -1.483019511566    -2.995918019051     1.689545277364
C     -2.304354289056    -3.736088635369     2.563902938551
C     -3.035297934530    -3.076114339099     3.571719486300
C     -2.948854545734    -1.675145589983     3.701179285165
C     -2.132956057664    -0.933823848236     2.823873853576
H     -0.762014314640    -1.012315773542     1.157963156428
H     -0.916844436229    -3.512998080923     0.917592365074
H     -2.370388846063    -4.817384644196     2.463937731470
H     -3.665037082577    -3.647723589320     4.250190517458
H     -3.515587660776    -1.163055663994     4.475990200253
H     -2.072941744506     0.149002136802     2.901488242319
C     -1.803200527317     1.853735005547    -1.560421564140
H     -2.174475490028     2.619701527758    -0.884173036445
H     -1.185722912468     2.184246617776    -2.391084761626
C     -2.236507176390     0.527910684535    -1.474827451019
H     -1.928803884483    -0.161526555201    -2.246419917967
C     -3.304347315144     0.036154164143    -0.587057697697
O     -3.895749310314     0.829104383419     0.191786905999
O     -3.688417004651    -1.311148658639    -0.696501398387
C     -4.748251707973    -1.732821897627     0.173461181155
H     -4.947409744620    -2.814092330182     0.015452257178
H     -4.466804886248    -1.589160160402     1.240343342254
H     -5.683649444193    -1.167674443177    -0.039091039869
Pd    -0.239666661498     0.864151988182    -0.347076862361
C      2.968551442959     1.946749953144    -0.522576856178
O      1.859694328524     2.624972359329    -0.925737980210
O      4.046901964325     1.894483303721    -1.135848318534
C      2.730315682180     1.224116676107     0.848890076800
H      3.217238012662     1.837878510440     1.625551658024
C      3.348491942794    -0.153353514474     0.872826506018
H      3.152367421065    -0.633018865136     1.854004932327
H      2.896743243300    -0.774778657411     0.073439369655
H      4.444839286878    -0.087697057387     0.711644303692
N      1.304617992645     1.063657478028     1.073215695289
C      0.507128391606     1.785357446247     1.827291216394
O     -0.771844346086     1.757651257042     1.495182400929
C      0.964855733140     2.596252562007     2.965271746077
H      0.076579346350     3.037230629147     3.452588765347
H      1.494286647260     1.929181589950     3.666089900221
H      1.623504097184     3.396814979676     2.587374013186
N      0.612479050579    -0.111067131751    -1.909165498038
C      0.696358586468    -1.473559281910    -1.834896276407
C      1.178114393445    -2.192127280979    -2.906097919908
C      1.585893257664    -1.552169052834    -4.055654899453
C      1.507962817981    -0.185896907382    -4.108615418925
C      1.021951991867     0.542469225898    -2.997396420914
H      0.371376897337    -1.986558363855    -0.937738797989
H      1.235164165609    -3.266414440319    -2.841923936158
H      1.967900127963    -2.118655824997    -4.900849485275
H      1.828261239680     0.368598924864    -4.967973328742
O      1.014915505891     1.821477515253    -3.108529292092
H      1.556910696962     2.499853390986    -1.924207404357

