# STO-3G

title

0 1
C     -1.513320000812    -3.139851472512    -0.333549356703
C     -2.921231723427    -3.074876302398    -0.297417378923
C     -3.640886710499    -3.790118680026     0.681338234242
C     -2.949555889689    -4.576907833271     1.624613798306
C     -1.541865777819    -4.649315026753     1.584754821140
C     -0.823365747770    -3.931879326135     0.607033416872
H     -0.958746956684    -2.589356402321    -1.087456732048
H     -3.454355818380    -2.476063177718    -1.035925818741
H     -4.727555841568    -3.739267999369     0.704797809184
H     -3.503023665383    -5.133078311019     2.378330323898
H     -1.008654328984    -5.264150044316     2.306547121795
H      0.261263132787    -3.985609608730     0.562866494788
C     -0.896352868753    -0.049326416280     0.637943068782
H     -1.788947464206    -0.345004279824     0.098895319455
H     -0.228752762405    -0.866905148432     0.884680605593
C     -0.760990880990     1.226307579772     1.207398344315
H      0.070208945826     1.437812740562     1.862156394488
C     -1.810099620602     2.261917239895     1.216506715979
O     -2.908713885005     2.059521732687     0.635528286889
O     -1.534789959834     3.484645363325     1.851161291464
C     -2.587928604041     4.458747101580     1.821039641389
H     -2.257003685545     5.376254081469     2.354132418459
H     -2.839830945293     4.738292973074     0.772827298606
H     -3.500203257836     4.071797914694     2.329862664379
Pd     0.326501012663     1.158826031226    -0.764222045069
C      2.468430658403    -1.701601831393     0.176004241972
O      1.486365213336    -1.903854831446    -0.733623337436
O      3.013551498846    -2.668341214290     0.733815901793
C      2.937969952412    -0.248610369803     0.563413863013
H      4.024894368156    -0.267177122090     0.383204848405
C      2.743660734055     0.011408176667     2.040438397432
H      3.024716045621     1.058145688383     2.280615196051
H      1.688758725338    -0.159013385368     2.324050668922
H      3.382090614924    -0.675325998540     2.635868448202
N      2.295550910968     0.825223067030    -0.175214550929
C      2.753011384944     1.415972385104    -1.270372638734
O      1.870729685380     2.058151648625    -1.996186795634
C      4.163894394856     1.374733593696    -1.691668375537
H      4.268834323177     1.994182982529    -2.601223083900
H      4.778553709597     1.793248444174    -0.877045762786
H      4.439743473123     0.330674405621    -1.920109599453
N     -1.256305417962     1.136708473269    -2.023573149674
C     -2.219546115088     2.040037001473    -2.368541548936
C     -3.087323507963     1.750023621972    -3.402009199531
C     -2.993809475927     0.557918484042    -4.089573116418
C     -2.013499495253    -0.333259745235    -3.736137321942
C     -1.125143392936    -0.015932272499    -2.683395023163
H     -2.301648288200     2.978002384163    -1.832451404793
H     -3.849984292597     2.463599277533    -3.664910946667
H     -3.681447542955     0.331146853638    -4.899755180080
H     -1.882783697654    -1.269691742950    -4.238978871791
O     -0.211195467122    -0.872122807808    -2.396498024573
H      0.968264945384    -1.249810069499    -1.314584207284

