# STO-3G

title

0 1
C      2.398273096387     1.938003542696     2.138553705121
C      3.661739817196     2.002650272818     1.517561812694
C      4.174004701157     3.247652986948     1.102064917059
C      3.427263387932     4.425538207001     1.311775639408
C      2.167510747493     4.359373681586     1.940761996594
C      1.652299912056     3.113967963208     2.354635354031
H      2.022784386694     0.966126209546     2.441556141212
H      4.216670703905     1.080345023894     1.372827598538
H      5.149008303893     3.300821146700     0.622314836570
H      3.825876052531     5.386440593857     0.993098285101
H      1.595683425026     5.268937905595     2.112271847501
H      0.681899749956     3.057184087542     2.844320602732
C      1.101436817036    -1.051676600352     4.008968059206
H      0.784344429587    -0.097054364012     4.423150201411
H      2.161684090628    -1.169504574744     3.805703037631
C      0.211928900056    -2.122648760639     3.878668506936
H      0.599560831136    -3.080246100085     3.569177255750
C     -1.180905435647    -2.128355710310     4.359775747630
O     -1.655809278620    -1.116992220811     4.938783244627
O     -1.975352464308    -3.254442902699     4.084484847566
C     -3.325013979019    -3.201370644238     4.568941465754
H     -3.852252588292    -4.141548012082     4.298085304371
H     -3.343616404143    -3.100252579067     5.678145033011
H     -3.877157130400    -2.348350195976     4.112475513676
Pd     0.342962920798    -0.954849095424     1.919250916963
C     -0.073525981579    -1.236583983583    -1.873159047879
O     -0.876616190534    -2.038646797096    -1.083034924596
O      0.310379886146    -1.585754284634    -2.989855418627
C      0.230729851214     0.143803458155    -1.210755827932
H     -0.310717705473     0.897063701284    -1.806194563651
C      1.702102912821     0.482916755932    -1.229151299371
H      1.860069343325     1.496393943348    -0.805737208117
H      2.268115413702    -0.245280449120    -0.613897977117
H      2.091421483260     0.462926406221    -2.268476110865
N     -0.214255530790     0.105024364946     0.173973276371
C     -0.792344895390     1.034763705605     0.910976354054
O     -0.926173741296     0.751650043410     2.183601220730
C     -1.237927972391     2.329846777678     0.377720791582
H     -0.355459901157     2.855055822083    -0.028490700875
H     -1.995811501350     2.146316124234    -0.401306444532
H     -1.676149424890     2.917816252393     1.205238870610
N      1.552564666440    -2.431582460723     1.279969725043
C      1.091221555404    -3.571630760585     0.682520435648
C      1.982590244643    -4.472392630972     0.145792795518
C      3.338731282637    -4.240123322436     0.196328933867
C      3.789899974956    -3.097713540681     0.802127659668
C      2.872916416231    -2.169409234760     1.354860908591
H      0.027906289005    -3.775725443029     0.650062704294
H      1.609066213092    -5.364501805298    -0.329831030431
H      4.038422163610    -4.950911183273    -0.235150845794
H      4.832990721193    -2.864559621868     0.870775807053
O      3.347842219092    -1.122311573360     1.886512104739
H     -1.062343458109    -1.542824100660    -0.241331920383

