# STO-3G

title

0 1
C     -1.414516380192    -3.320820009681    -0.559378836989
C     -2.785496184451    -3.446801312407    -0.863776394326
C     -3.642589647282    -4.158037122696     0.000833186353
C     -3.124754535563    -4.748745650214     1.171104262612
C     -1.752507714729    -4.628226973264     1.473946781291
C     -0.897207821699    -3.915058374113     0.610367930053
H     -0.754660041449    -2.776018762722    -1.227586004214
H     -3.178840623560    -2.997157061873    -1.774866426543
H     -4.699562768532    -4.256872597437    -0.237804014414
H     -3.782661290089    -5.302427273725     1.837814860725
H     -1.351875010945    -5.090118028492     2.373785522190
H      0.162658741458    -3.817293966744     0.831743731551
C     -0.973949905193    -0.132806324602     0.626474479716
H     -0.227234579342    -0.453906674767     1.343451586689
H     -1.340253060672    -0.909308203233    -0.034293137355
C     -1.632896412854     1.095424217364     0.722055453077
H     -2.490115856989     1.258762428520     0.089850304767
C     -1.432908515204     2.095629319410     1.784118779952
O     -0.514075344761     1.940293830874     2.630002662053
O     -2.219855900808     3.259234484073     1.763929725520
C     -1.958724154974     4.210505518667     2.805993272861
H     -2.640848877712     5.080495543412     2.690985458655
H     -2.137868488060     3.759207470008     3.808529956010
H     -0.910036141577     4.581962965942     2.750211070316
Pd     0.067130362515     1.240896631805    -0.805971602560
C      2.269165391889    -1.360830839148     0.556951987923
O      1.456074776021    -1.717399010632    -0.470524649578
O      2.672690813402    -2.224730092680     1.353058402433
C      2.764842524363     0.126598199104     0.703756040997
H      3.837470099455     0.067927080151     0.451603872386
C      2.668294511144     0.618529381212     2.129065915708
H      3.062247517062     1.653691798844     2.195561729321
H      1.612710131980     0.623680177469     2.459654747705
H      3.256706206260    -0.034565606239     2.807168716861
N      2.058190899222     1.067010773156    -0.142425563418
C      2.486472733040     1.642818926209    -1.247162917570
O      1.560966018216     2.165830557721    -2.025301651385
C      3.904178179997     1.719222651710    -1.637007581351
H      3.973688282732     2.313544192359    -2.566248718946
H      4.456269309424     2.220127723653    -0.823955959642
H      4.280201375676     0.697778623728    -1.819149226020
N     -1.355704774203     0.993974272323    -2.212090657182
C     -2.281867398145     1.850692615517    -2.731862130138
C     -2.987052578389     1.488498433194    -3.860132298326
C     -2.753396694722     0.278912747560    -4.480713235380
C     -1.796221706531    -0.555393401736    -3.963260084271
C     -1.066897261484    -0.165632787404    -2.815747527267
H     -2.480899014370     2.796210560197    -2.240909476456
H     -3.727010749112     2.162071680242    -4.259689311660
H     -3.309911343000    -0.003062697587    -5.370490471560
H     -1.551970574647    -1.494834760399    -4.416297198015
O     -0.151715251352    -0.958351051154    -2.399261582289
H      0.983119182181    -1.134016482515    -1.149909526540

