# STO-3G

title

0 1
C     -0.008482711726     2.302879009085    -0.816772825714
C      0.784294005306     3.428506964209    -1.155319929386
C      0.241652082895     4.504086640616    -1.889646808162
C     -1.102843245893     4.478567088864    -2.305007895463
C     -1.892574673754     3.354343022019    -1.997382657140
C     -1.349642148575     2.273911191918    -1.270656541338
H      0.992753371531    -1.850186898553     0.684794263192
H      1.828583688404     3.481908566971    -0.852625860057
H      0.872998466406     5.357004867580    -2.133303866605
H     -1.523255969736     5.309361738823    -2.867252743497
H     -2.927645439855     3.305867614589    -2.331979530575
H     -1.976667891132     1.401459106767    -1.101737102370
C      0.013353932660     0.917610264502     2.948788576358
H     -0.967528089225     1.395407603745     2.899111235617
H      0.336855116709     0.985477864558     3.994920496568
C      1.020699080293     1.568130390203     1.956466206483
H      2.027551736467     1.177724901751     2.157367432092
C      1.099295480816     3.042956515328     1.993692479649
O      2.188339201269     3.596239230581     1.689195267166
O     -0.061107479325     3.795227674987     2.245646400721
C      0.070405280364     5.217161376123     2.112354909017
H     -0.905592962978     5.699101106928     2.336182799727
H      0.827656894431     5.615021872777     2.825422625611
H      0.358451627553     5.490996067993     1.072011588640
Pd     0.848132592025     0.696359983173     0.018325367230
C      2.262053488982    -1.390019250254     2.144435014302
O      1.904052173722    -1.416774326469     0.803228730087
O      3.433828712814    -1.341970660736     2.511090536906
C      1.055568289766    -1.338220906829     3.135950967154
H      1.441138159906    -0.813590014885     4.014877742732
C      0.605137460117    -2.713764142044     3.593364793867
H     -0.265291746055    -2.612809773239     4.273867950473
H      0.316947814802    -3.339774165594     2.725584816502
H      1.430736330542    -3.219649167089     4.135483042259
N     -0.112847339087    -0.552005696530     2.660156195512
C     -0.891632966310    -0.967626399555     1.636523314811
O     -0.606048524262    -1.982615103418     0.894801784988
C     -2.218690410304    -0.345206691581     1.453503805885
H     -2.800301929197    -0.929968708430     0.718185720488
H     -2.729021442509    -0.372883407959     2.431805197770
H     -2.099515201133     0.691675437952     1.107199058753
N      0.779296240800    -0.256728968302    -1.935007312299
C      1.678457436008     0.312965796142    -2.799115845262
C      1.570747843261     0.094659625001    -4.157344136622
C      0.568587832981    -0.706448107323    -4.657416114982
C     -0.304734219111    -1.279435476209    -3.771594729304
C     -0.150829691145    -1.035319983338    -2.390294467662
H      2.465414251359     0.951047900257    -2.414071114790
H      2.277870664323     0.555381809979    -4.827394286280
H      0.477466732268    -0.884793470859    -5.725548585136
H     -1.096716020601    -1.926643536244    -4.091524317751
O     -1.054028803298    -1.668514824165    -1.646153864673
H     -0.899894960996    -1.732391506881    -0.652084930289

