# STO-3G

title

0 1
C      1.272438443964     4.170399391253     0.136396272803
C      1.196740339657     5.073409290219     1.221818727058
C      2.362705361134     5.660371831927     1.742844729243
C      3.621141946317     5.352766747286     1.187982787309
C      3.702658202126     4.455644159906     0.107862158921
C      2.533562131545     3.869936689252    -0.415747321485
H     -2.488526559434    -0.177637695284     1.471405279470
H      0.230555242444     5.312371966492     1.662198248772
H      2.291359583952     6.350286600106     2.580254647226
H      4.523014295496     5.803614450473     1.594086092121
H      4.668146458089     4.207729291506    -0.325903418934
H      2.615534823081     3.178176556847    -1.253149312337
C     -0.017604049817     3.559896345660    -0.397091087775
H     -0.674023126758     4.308221151748    -0.848674560115
H      0.348948927209     2.952035567987    -1.363899428510
C     -0.809071603841     2.630599740519     0.489788717151
H     -1.851907691409     2.871306180454     0.646917021649
C     -0.161326664211     1.962664835534     1.630725672362
O     -0.698500972251     2.001423094580     2.766285767002
O      0.955139250971     1.152280590990     1.355696040333
C      1.520815911637     0.468832640119     2.483198169356
H      2.403286170924    -0.122562235780     2.156604906912
H      1.857716353908     1.193952777608     3.258848341847
H      0.785266475990    -0.236631120975     2.932180160208
Pd    -0.508730046241     1.357197620171    -1.113212681845
C     -1.540264032020    -1.379652761839    -0.431211829504
O     -1.774515817354    -0.056832236513    -0.388509366439
O     -1.196883020714    -2.033328904835    -1.443796685166
C     -1.752070239151    -2.053453317626     0.953570953690
H     -0.796844101375    -2.492610955690     1.270154314859
C     -2.793341750825    -3.151560962779     0.907151253328
H     -2.860204649405    -3.640728736264     1.901188583315
H     -3.779629647619    -2.709331065785     0.659633681984
H     -2.519573526547    -3.911881379891     0.146807398380
N     -2.187253108572    -1.043001717741     1.916158080733
C     -1.903778854524    -1.143861987333     3.238337072353
O     -1.226003346250    -2.070134588893     3.752228918266
C     -2.476029346999    -0.106571721392     4.123644777983
H     -3.122911961820    -0.614912537958     4.856480242679
H     -1.635739131293     0.394516426522     4.631378995089
H     -3.056639041320     0.627258195502     3.538046236021
N      0.294320088392     0.222810588474    -2.746939472228
C     -0.475401280982    -0.361015975983    -3.719051470482
C      0.133103465044    -1.037925619588    -4.759144703707
C      1.505977376022    -1.167708278281    -4.802601915851
C      2.243955083390    -0.603254136821    -3.792823870616
C      1.574059687541     0.074697476158    -2.758699897819
H     -1.554545012091    -0.262422418598    -3.688096200532
H     -0.476523214934    -1.490054048556    -5.524443112939
H      1.988725203990    -1.713617036470    -5.608969904458
H      3.311448963546    -0.689305798404    -3.748292424746
O      2.376138113775     0.546792580685    -1.785747147206
H      1.844298813511     0.846230921552    -1.003436962748

