# STO-3G

title

0 1
C     -0.307583956055     4.081860073706    -0.324096385200
C      0.330252315800     5.269004217409     0.101018173935
C      0.116465671946     6.479851031076    -0.582370026326
C     -0.739531321880     6.518894425642    -1.700784951634
C     -1.379407530779     5.339775447268    -2.127221548567
C     -1.167031718847     4.127852269066    -1.442681014587
H     -2.126799257228    -2.460021671825     0.717554555237
H      0.988306366303     5.249798827846     0.967790062020
H      0.611969624435     7.387441436338    -0.244347445774
H     -0.905617507682     7.454278171895    -2.230312237549
H     -2.042583572614     5.358927839859    -2.988769365693
H     -1.668949347723     3.222258696880    -1.781854028982
C     -0.080172168276     2.789765913103     0.436635448418
H     -0.575630054576     2.758563725261     1.413252054869
H     -0.778999444849     2.004930193228    -0.092803898447
C      1.344680581224     2.267822379696     0.464590459297
H      2.033361435701     2.800012770840    -0.180946220063
C      1.975423928966     1.752265708744     1.692616281782
O      1.280297996966     1.069069533288     2.486735634098
O      3.378847357586     1.723521084218     1.747309332302
C      3.948850375879     1.009469101059     2.853804450357
H      5.057452876603     1.069458855086     2.800886006298
H      3.623201182467     1.452062280316     3.822828335957
H      3.659185321751    -0.066125508926     2.821873998539
Pd     0.460438199089     0.757230515063    -0.601803108756
C     -2.310743065335    -0.216964511585    -1.502354803070
O     -1.008881550285    -0.572902310051    -1.512695597873
O     -2.775617133692     0.737220982912    -2.153315233285
C     -3.171499719618    -1.149956251092    -0.586491930303
H     -3.338508288069    -2.082829270093    -1.141619112794
C     -4.515913582739    -0.557812774688    -0.221398336097
H     -5.060387596789    -1.256314286031     0.446900151099
H     -4.374920560835     0.408141716768     0.305648344660
H     -5.118186080803    -0.385211820528    -1.137064882113
N     -2.446671401582    -1.501986303760     0.641579790161
C     -1.925548264893    -0.583909985288     1.497458797298
O     -2.055699682321     0.660474323151     1.380517785501
C     -1.164773067184    -1.137185991967     2.635614307287
H     -0.307348727920    -1.702731711201     2.233401476023
H     -0.813528303762    -0.301661904183     3.266706576959
H     -1.836580004239    -1.798567781020     3.209126716906
N      1.953958695903    -0.682052004483    -0.665798811613
C      3.284862859316    -0.359396912610    -0.669350590438
C      4.234540853521    -1.338945409215    -0.468825572429
C      3.859719179399    -2.650972138225    -0.280289845762
C      2.524687589422    -2.954837360397    -0.304889888819
C      1.578591645466    -1.929563332421    -0.517965490196
H      3.592286197147     0.669010780556    -0.817876361330
H      5.278861868008    -1.071752867647    -0.464346660896
H      4.604780773777    -3.426841693477    -0.124445994343
H      2.165694035150    -3.957485555525    -0.180410786503
O      0.329021539278    -2.330763409810    -0.548323939591
H     -0.399341532013    -1.593757132471    -0.948098138642

