# STO-3G

title

0 1
C      0.213111771493     4.150401185625    -0.928145768343
C      1.522985739083     4.440707699593    -0.493230495230
C      1.900476143590     5.761757555246    -0.190669028555
C      0.972765261050     6.811806067621    -0.328593649661
C     -0.334167047250     6.530624813243    -0.771477775486
C     -0.710670150024     5.208446975114    -1.071538368524
H     -3.271413248010    -1.071277533228     1.108169636485
H      2.247499933958     3.633717933776    -0.379871020703
H      2.912286183699     5.968060263043     0.150144403211
H      1.264460103681     7.833124010788    -0.096597560726
H     -1.055479430114     7.336609781360    -0.883969774353
H     -1.723229524230     5.001013779049    -1.412537807684
C     -0.240966462150     2.730242070722    -1.222300947869
H     -1.010782411739     2.695479158113    -1.995898678737
H      0.709043003651     2.249073272914    -1.777448763520
C     -0.613907507736     1.811261902494    -0.091412189287
H     -1.589891459407     1.351092393567    -0.142839747861
C     -0.098063288265     2.008050241969     1.272416109565
O      1.152338611991     1.949445506684     1.417041578972
O     -0.968184985882     1.813873255606     2.355736715841
C     -0.348174295856     1.722187109214     3.646790882091
H     -1.129938333830     1.582928313173     4.424249713793
H      0.330352092658     0.839534664566     3.696011454281
H      0.221920870481     2.648451331728     3.883877647287
Pd     0.810428118342     0.602953090974    -0.988798917744
C     -1.003115665810    -1.454441967754     0.075576346656
O      0.276487985440    -1.077695944590     0.145879556323
O     -1.798266451294    -1.094896921240    -0.830146206686
C     -1.520315671731    -2.218412390624     1.315654480154
H     -0.746673871216    -2.276475790210     2.083501272196
C     -2.043260114421    -3.599358903226     0.991534865628
H     -2.411777389138    -4.078101533384     1.922258614471
H     -2.888139224565    -3.515253981731     0.276732398579
H     -1.237359377579    -4.221714559357     0.552119417968
N     -2.628898709670    -1.404516004692     1.820776930241
C     -2.618395526591    -0.876313487412     3.075231300179
O     -1.755528703520    -1.113216760948     3.952815817964
C     -3.747087064143     0.027746699847     3.380713084498
H     -4.682278222564    -0.535891088754     3.226881982189
H     -3.657958678849     0.359267474465     4.428932325748
H     -3.686988229159     0.890193209846     2.694450029588
N      2.460655879690    -0.367536992401    -1.971514162107
C      3.060327163035     0.228068422879    -3.049398355380
C      4.182849943751    -0.335129423368    -3.618965581213
C      4.713472736591    -1.501873764223    -3.114087610537
C      4.094726102531    -2.082455227449    -2.039317593247
C      2.947907684690    -1.475756059034    -1.485213626892
H      2.652692740133     1.147671102996    -3.453118457601
H      4.648416287414     0.143912457873    -4.465384689657
H      5.598655850502    -1.950541412238    -3.557619257782
H      4.454290795991    -2.991433288151    -1.598302426097
O      2.439086186732    -2.133294259921    -0.461007582416
H      1.551837872868    -1.764303027501    -0.083191476499

