# STO-3G

title

0 1
C      0.408778628395     4.182145198480    -0.588677969208
C      1.804011686774     4.368202671056    -0.648143251463
C      2.396496474759     5.522826582182    -0.100764090772
C      1.596109587526     6.506427312423     0.507683221686
C      0.199338010029     6.328028229016     0.567326979710
C     -0.390857399106     5.173547288430     0.024672823318
H     -2.274426709964    -0.792566989456     0.375103464136
H      2.437769459489     3.617060050137    -1.119243127528
H      3.475386544105     5.647464327336    -0.148923537337
H      2.052758871480     7.396894227248     0.931984032100
H     -0.425076319171     7.082821530495     1.038968183960
H     -1.469402824965     5.041871342489     0.081768999473
C     -0.274065646463     2.945888142306    -1.163847947558
H     -0.941275175666     3.188557479012    -1.994050015305
H      0.631660758782     2.381993931099    -1.713199184630
C     -0.937584832228     1.977324189757    -0.219219942922
H     -1.997197079581     1.809361152791    -0.340130097908
C     -0.438115798230     1.845834186020     1.157733196294
O      0.745284857371     1.430774838312     1.292986603880
O     -1.328630006688     1.925944649706     2.237066367313
C     -0.767487310631     1.659116508710     3.530602650956
H     -1.566575642097     1.728896400007     4.300605470210
H     -0.349777191896     0.627234524354     3.578416374928
H      0.028392794847     2.396561104882     3.779676318831
Pd     0.296969772716     0.647684834348    -1.232549693895
C     -0.178785312698    -1.962875428114     0.119085835804
O     -0.695161466545    -1.074263117154    -0.756342778404
O      0.832292157020    -2.671404763417    -0.087414769911
C     -1.011927466403    -2.063811183855     1.431787268700
H     -0.370342598369    -1.772671318519     2.274454411627
C     -1.516334479815    -3.470944021765     1.678208627931
H     -2.048157384925    -3.513264552161     2.651269859336
H     -2.222524754247    -3.753135483377     0.871242968106
H     -0.668057777670    -4.185987270846     1.700551510875
N     -2.162434051227    -1.165570578597     1.317358337631
C     -2.867322140546    -0.721495846903     2.384215426143
O     -2.617014789362    -0.995473702052     3.585167586732
C     -4.042980650106     0.113713737056     2.054748994495
H     -4.708355932561    -0.483759212099     1.409741762223
H     -4.551954570475     0.384545798409     2.995668192615
H     -3.693576035172     1.018551888411     1.532643904199
N      1.917540059171    -0.436214816685    -2.106867520768
C      1.729327608183    -1.562449633891    -2.864268455046
C      2.823404851568    -2.213625706510    -3.402504361652
C      4.102413897281    -1.760988390062    -3.149849394755
C      4.254747298313    -0.653469345817    -2.353746600708
C      3.107852648703    -0.034199129166    -1.824994462341
H      0.725931173755    -1.918015784565    -3.069035179445
H      2.671030218373    -3.094763240298    -4.004100720049
H      4.966848043875    -2.277485972105    -3.558699935445
H      5.218858879917    -0.267632678941    -2.088606296319
O      3.355612343949     1.001082668930    -1.000424672830
H      2.544253092824     1.235004025746    -0.478836452919

