# STO-3G

title

0 1
C      0.948973508009     2.796025657474     2.202912775439
C      1.862364230136     3.722641713772     2.752966021162
C      1.435394600489     4.670208846110     3.701475555136
C      0.089517735855     4.700341101163     4.116319639938
C     -0.824797975137     3.775594177555     3.576825418156
C     -0.395744744059     2.828335733731     2.628873141947
H      1.045614144367    -2.735573570500     2.265567183975
H      2.904920077835     3.705326500450     2.440378852104
H      2.148074654425     5.379092623311     4.116869181467
H     -0.240473978274     5.430950863867     4.850889284633
H     -1.865371029186     3.788328853219     3.891979340319
H     -1.109549237001     2.118996980724     2.210559595935
C      1.430042648007     1.802162528400     1.163809801575
H      2.456324623251     1.474757013772     1.340787686144
H      0.848240807135     0.813203102550     1.391260567362
C      1.259798621388     2.113789830205    -0.317760508409
H      2.147572645847     1.906949582599    -0.905675109155
C      0.479850803238     3.270649507606    -0.793874275025
O      0.859642005364     3.834193453768    -1.853759720945
O     -0.858112730740     3.355888632952    -0.376006018393
C     -1.665909445037     4.333805614908    -1.044620142212
H     -2.690476565312     4.319766057547    -0.614130507240
H     -1.245232150259     5.355680545471    -0.907247843263
H     -1.745021516876     4.104523977262    -2.132077732901
Pd     0.098703980315     0.429384365159    -0.296654837428
C     -0.906956109135    -2.566109540280     0.298564405088
O     -1.163308825044    -1.248289621367     0.249047676766
O     -1.785027815437    -3.444940021414     0.432906863935
C      0.616297873671    -2.896850627848     0.190432546785
H      1.017729255378    -2.377316656263    -0.686554226437
C      0.899565980691    -4.378145029956     0.068992522785
H      1.992866434112    -4.543648932452    -0.022965132402
H      0.531669667269    -4.899403608974     0.977079898599
H      0.389804737806    -4.793983730296    -0.824489760641
N      1.345714911612    -2.393277303132     1.360642137832
C      2.337666380071    -1.476566999371     1.282443401705
O      2.687876500088    -0.868593349331     0.236766032259
C      3.027380512361    -1.183872525325     2.556665263410
H      3.445004764732    -2.131506317470     2.938839327404
H      3.839166350929    -0.459917962118     2.368753456850
H      2.291351257188    -0.771052813947     3.269138106245
N     -0.806759390347     0.591054574207    -2.158239370510
C     -0.162248491403     1.130825056726    -3.240160988122
C     -0.869349657760     1.438324673599    -4.383100045183
C     -2.223726875206     1.201641082480    -4.455834584282
C     -2.844415286009     0.642961664233    -3.370556114934
C     -2.091478467921     0.332035720554    -2.218214456005
H      0.903022258699     1.324717082497    -3.195324663419
H     -0.353159230207     1.876710927964    -5.222059190780
H     -2.784483043036     1.445480294699    -5.354363267496
H     -3.892922184357     0.418781454332    -3.367309907068
O     -2.782151539635    -0.222381786187    -1.251715187332
H     -2.202782142752    -0.698288012085    -0.479807150405

