# STO-3G

title

0 1
C      0.782533690376     4.087257117270     0.258677705080
C      2.175493257557     3.972122117207     0.069332105633
C      3.004737336389     5.106934779978     0.137585984922
C      2.448283381276     6.375516072754     0.388096556213
C      1.056972251925     6.499996930181     0.570035073150
C      0.230054693841     5.363680051828     0.503986192904
H     -3.505579176269    -1.358411048681     1.975234292806
H      2.614315706517     2.992472102715    -0.120399727013
H      4.077253039277     4.999598666054    -0.006102062786
H      3.087586549849     7.253616688288     0.438428556366
H      0.618908290780     7.476982793276     0.761389839226
H     -0.843800020586     5.470530198490     0.646781902410
C     -0.130298227362     2.875094957042     0.227714406416
H     -1.106256403932     3.101293511038    -0.208883932668
H      0.353026344340     2.177356711372    -0.606361457963
C     -0.303798186223     2.035850367754     1.473221010584
H     -1.325997492329     1.836166471658     1.769068160063
C      0.633772381777     2.101158205278     2.608456218052
O      0.175075884313     2.044817673286     3.779016336819
O      1.994778556466     1.869946653600     2.345539980623
C      2.854676090928     1.835502005592     3.492599209402
H      3.901507892102     1.660695455227     3.163502679016
H      2.819379685283     2.803790975245     4.041737101674
H      2.564758342989     1.007919107073     4.179919300221
Pd     0.278334679725     0.526276616060     0.210607545967
C     -0.567947765272    -2.081390269008     1.182823429949
O     -0.368707582033    -0.879413717504     1.635135426810
O      0.356412288793    -2.913445650023     0.882527552032
C     -2.056623682489    -2.506412048697     0.980481211494
H     -2.302240091319    -3.226500127972     1.772259022110
C     -2.284401556711    -3.187633671053    -0.354556807064
H     -3.359129206003    -3.441640236128    -0.462933323741
H     -1.989191891475    -2.511681257848    -1.182570221319
H     -1.686034617182    -4.120166206719    -0.416497530752
N     -2.987587543920    -1.379201079485     1.105930243535
C     -3.021289048120    -0.263133255379     0.332620165624
O     -2.292155926211    -0.023511489641    -0.664693457098
C     -4.030319354662     0.742871047270     0.734488110255
H     -3.810202228898     1.058576255101     1.768626844586
H     -3.977363129003     1.600865200715     0.042778138207
H     -5.025208477550     0.266913018602     0.680548184204
N      0.888684136899    -0.656783890968    -1.480630270241
C      0.382879141219    -0.235433460749    -2.681923285225
C      0.985003396433    -0.628534017751    -3.859704751934
C      2.081993725059    -1.462625447250    -3.840997869281
C      2.540203480005    -1.904837571630    -2.627851692600
C      1.883665761772    -1.495385130014    -1.447078413095
H     -0.468534976757     0.435131288697    -2.704583734024
H      0.590673076819    -0.278304521346    -4.799851535994
H      2.560598300354    -1.775327522795    -4.765347473599
H      3.366610754787    -2.582167837031    -2.541883483767
O      2.350944782205    -2.041097470597    -0.336555522865
H      1.608150355586    -2.301238912926     0.354950681745

