# STO-3G

title

0 1
C      0.183616546763     4.282351290450    -0.013826190335
C      0.546754726556     5.490625713541     0.619350884591
C      0.701451828791     6.670669015945    -0.131128015020
C      0.488975078200     6.656032870960    -1.523678062839
C      0.117755821381     5.455462724731    -2.158876656274
C     -0.035554130051     4.275445259531    -1.407539823765
H     -3.391912775267     0.144213787333     0.556512075427
H      0.712072438300     5.509568004677     1.695419649836
H      0.982297126864     7.595524105440     0.367479979414
H      0.604744044176     7.568737556646    -2.103188236696
H     -0.058758875177     5.438486784685    -3.231507715281
H     -0.336798275227     3.352803898027    -1.902153436087
C      0.072657246449     3.011075650018     0.803306162482
H     -0.297536241665     3.193049502694     1.818676334353
H     -0.858609462997     2.432217344188     0.354468545751
C      1.288341221996     2.096376273762     0.770603808286
H      2.068246815857     2.393683499110     0.080466757858
C      1.832326212510     1.481716277460     1.996194349935
O      1.098205100154     1.384477746679     3.013908185048
O      3.125478319390     0.938773154429     1.962273388780
C      3.515916145704     0.183502465890     3.117768836533
H      4.547721606581    -0.203059290311     2.973955372118
H      3.505310439662     0.819506518878     4.031763296337
H      2.839376029861    -0.690017827457     3.265519743834
Pd    -0.016904810559     0.945860550273    -0.338154864930
C     -2.051724838936    -0.947303243123    -1.638463275356
O     -1.560694566368     0.279135699947    -1.628401455737
O     -2.260254076169    -1.648775590547    -2.659656364405
C     -2.369037119040    -1.549333449253    -0.203917010431
H     -1.485207026428    -2.106813904137     0.126715560812
C     -3.556541268573    -2.486741284614    -0.205549657555
H     -3.722640260033    -2.881933320562     0.817968379480
H     -4.461590887112    -1.934326751013    -0.530351347438
H     -3.375104656479    -3.335593461077    -0.897032712727
N     -2.640574192288    -0.496879058083     0.785151256381
C     -1.864222073794    -0.236314208699     1.845665055262
O     -0.781292315047    -0.826182052404     2.124368680104
C     -2.349589191503     0.810751597782     2.764720076228
H     -3.311181164036     0.467441112254     3.183438145108
H     -1.607451034445     0.947767814098     3.573686677166
H     -2.489843182554     1.749568673939     2.204143438901
N      1.202070547273    -0.592652988312    -0.924078682854
C      1.529738363473    -0.585734736495    -2.254623035127
C      2.402923638652    -1.529294103021    -2.752298035761
C      2.938807227431    -2.491496345728    -1.925382899484
C      2.570883903250    -2.491446055742    -0.605351926574
C      1.664320135342    -1.518922545759    -0.133854088972
H      1.117545777001     0.173769539783    -2.909316849483
H      2.659503669237    -1.514474287897    -3.799306976160
H      3.626117818143    -3.239029658898    -2.312774038222
H      2.935484959415    -3.225699875757     0.085136143197
O      1.348637499993    -1.655558492243     1.136134389863
H      0.482377266265    -1.229307096072     1.506154658267

