# STO-3G

title

0 1
C      1.415322118859     3.821643461601    -0.210037949002
C      1.335064060637     5.192259046895     0.116606670731
C      2.503905832170     5.935430588534     0.365725757137
C      3.766168870380     5.317271487570     0.284722818932
C      3.852401104061     3.951968977651    -0.049721292806
C      2.683997524519     3.210640944667    -0.300467663945
H     -2.108393397547    -0.308801155808     1.282062393835
H      0.363861013695     5.679195890056     0.183509135712
H      2.429424197511     6.989748575843     0.620986571222
H      4.669368497995     5.890812508522     0.477292595257
H      4.822850365290     3.466066484874    -0.114557636243
H      2.761608276094     2.153553943808    -0.556080549372
C      0.134542247900     3.039210880928    -0.430760286371
H     -0.696858463709     3.677705898196    -0.738868999758
H      0.351489448476     2.457140785806    -1.475575982349
C     -0.323566593369     2.023409882177     0.578719626281
H     -1.370046916499     2.092140281980     0.846814055147
C      0.540403496834     1.598764385642     1.690253162042
O      1.497583989215     0.825533335497     1.423043777100
O      0.112936867273     1.822084729218     3.007785720822
C      0.944140258556     1.269546462528     4.038430263388
H      0.496792262612     1.493216198449     5.031177910027
H      1.010139540688     0.161777430078     3.945957171938
H      1.966484336218     1.708515186990     4.003146131627
Pd    -0.090052187517     0.786150197100    -1.071771013986
C     -0.346082505815    -1.815456296519     0.466386819670
O     -1.045075662902    -0.932160562290    -0.315190573187
O      0.551086795108    -2.565174169138     0.045364539366
C     -0.833476284526    -1.830903491371     1.934400018510
H      0.037679215758    -1.737647201964     2.593430433882
C     -1.538802433586    -3.132536139982     2.265253296507
H     -1.805018868731    -3.152598453210     3.342377244785
H     -2.468857673965    -3.210026201283     1.666117412904
H     -0.878006983504    -3.996662709681     2.044881247522
N     -1.767983188907    -0.723451583286     2.146795031813
C     -2.081644749441    -0.262876502605     3.382360934177
O     -1.602959876361    -0.701076200275     4.457384679227
C     -3.082857210659     0.824412479433     3.417351000561
H     -3.297406557149     1.065966241201     4.473106618184
H     -2.650491929463     1.698928401792     2.909466638536
H     -3.994947757112     0.470520999532     2.907022684418
N      0.194422717805    -0.064208150688    -3.021449342599
C      1.159884387714     0.416465120559    -3.865382119768
C      1.222036952805    -0.026142686723    -5.170300363978
C      0.328178082394    -0.967104909487    -5.634396166807
C     -0.615800226426    -1.448248337468    -4.766306136511
C     -0.639978323080    -0.977735012947    -3.437100491896
H      1.864072162719     1.160774717201    -3.511211616273
H      1.981975732462     0.362984690263    -5.828800299475
H      0.375505006055    -1.323631953238    -6.660133985730
H     -1.329180517241    -2.194881040920    -5.054888100897
O     -1.564902746702    -1.524304722283    -2.675623122093
H     -1.426462418078    -1.333819668759    -1.654745226491

