# STO-3G

title

0 1
C      0.600214067508     3.954046330105     0.283147017577
C     -0.050602213002     5.108882858284     0.769936844527
C      0.584799038815     6.363563692138     0.721873731478
C      1.880034323078     6.481375415817     0.181859329212
C      2.532603005423     5.335332197213    -0.311686472075
C      1.894348413374     4.082568609882    -0.264391597648
H     -3.324636732264    -1.247608245201     2.332696832035
H     -1.051714302998     5.027698692650     1.189199532420
H      0.072175865860     7.244253643148     1.102134347351
H      2.371890870999     7.450387538309     0.144127142359
H      3.532759707637     5.414819615782    -0.731458481740
H      2.409127097775     3.200465665291    -0.646374664171
C     -0.103455958842     2.613369473322     0.379831180818
H     -1.190225107371     2.699348977154     0.332859306651
H      0.121984079136     2.088053129498    -0.665663674230
C      0.282203922563     1.632228243135     1.458230880361
H     -0.519250418200     1.267684059377     2.085996488019
C      1.589395989615     1.681371658968     2.132439368724
O      2.610169836713     1.501453775087     1.415280170407
O      1.640587678694     1.532253381092     3.526804109075
C      2.945961447681     1.349789592789     4.091207124546
H      2.857201717415     1.253360265770     5.194701817434
H      3.416543607802     0.418374997499     3.701703449119
H      3.600807429545     2.221891743062     3.866771987080
Pd     0.561635523266     0.377749609425    -0.158826335130
C     -0.347410476979    -1.581770154183     1.849948803068
O      0.677344654409    -1.430087225820     0.999706256691
O     -0.307859826339    -1.287115903268     3.065134757942
C     -1.725413253428    -2.117345092965     1.295133428742
H     -1.991622471231    -2.964028136564     1.939770551220
C     -1.737024629827    -2.590804832054    -0.143812980932
H     -2.760580787117    -2.926554694782    -0.410499737953
H     -1.447267801077    -1.771814929039    -0.829114019581
H     -1.040926630879    -3.445204870797    -0.269273212884
N     -2.779292896268    -1.106481898119     1.492237347171
C     -2.918564375985     0.073024967487     0.838586932719
O     -2.195672927894     0.492738787468    -0.101627337565
C     -4.031338020096     0.923195411008     1.314179299312
H     -4.967242352740     0.350122270369     1.198953283675
H     -3.848404080047     1.158637970624     2.376569396808
H     -4.068162727936     1.848679933779     0.712312428841
N      0.867948603302    -0.600203657556    -2.052264189847
C      0.690197115607     0.108505937288    -3.210330613914
C      0.959134888446    -0.478369743996    -4.429592077617
C      1.404459154642    -1.780632669575    -4.497272852186
C      1.565349295752    -2.472510760117    -3.326011618160
C      1.279096860118    -1.836506238396    -2.099904307316
H      0.342072883552     1.134137774336    -3.167346444887
H      0.819033695925     0.089612200242    -5.335230357780
H      1.618294578861    -2.248018744676    -5.455007701548
H      1.902160829419    -3.490147362067    -3.306603734999
O      1.442246452859    -2.602221935274    -1.039889189867
H      1.142911420004    -2.179751838466    -0.127480704396

