# STO-3G

title

0 1
C      1.162581542958     2.232756706800     2.080388374745
C      2.265032971260     2.506059454889     2.916924714594
C      2.068256104806     3.021111880499     4.212281366207
C      0.765154365096     3.260203159605     4.688139586642
C     -0.340938855550     2.976164607390     3.862516367192
C     -0.143001264204     2.464940589203     2.567807735605
H     -0.034601248722    -1.876927418890     1.754246426860
H      3.271967345782     2.296929383156     2.563693845582
H      2.926917688448     3.226360057981     4.846963898855
H      0.612404135082     3.653274571714     5.690402196783
H     -1.351000184623     3.144989072891     4.228586415715
H     -1.001901183460     2.228681236992     1.940797329945
C      1.398267261633     1.713569806438     0.677397104120
H      2.448090185473     1.462999419996     0.498333169751
H      0.985479209409     0.597188849986     0.651960676841
C      0.723989478641     2.488046058983    -0.430364282349
H      0.194165060174     3.374278286431    -0.111619963447
C      1.354338210341     2.596148938516    -1.756527972494
O      1.806346700682     1.539832683116    -2.267329112117
O      1.057804806664     3.716636863685    -2.548107570413
C      1.566332058028     3.686954129389    -3.889877049831
H      1.288999603825     4.628748283895    -4.411462020804
H      2.677312432451     3.604544047337    -3.892392926837
H      1.131698391822     2.835001678071    -4.461629151812
Pd    -0.426149661532     0.768833653856    -0.491650587727
C     -0.114950461856    -2.298020356521    -0.738792308867
O     -0.999478886357    -1.362501888738    -0.297739647751
O     -0.325970664490    -3.058710330588    -1.699895238711
C      1.194490036955    -2.324950322902     0.097865155498
H      1.933293314255    -1.671808619847    -0.387814577492
C      1.786582271851    -3.713744890196     0.204631188970
H      2.736192684838    -3.671813272062     0.777694075741
H      1.074808452869    -4.376839553574     0.737543134367
H      1.993465448936    -4.125090820806    -0.805198562331
N      0.933860795704    -1.835041113252     1.455205465192
C      1.867323192620    -1.191383313233     2.196663939354
O      3.005669621609    -0.851016835232     1.785770987370
C      1.466767573157    -0.882510750737     3.584389414168
H      1.249218618978    -1.835649701628     4.094039405719
H      2.298716704646    -0.353887801799     4.081479494474
H      0.571729840135    -0.238053489869     3.558800887069
N     -2.074137552400     1.331904588628    -1.645248927850
C     -2.194893184333     2.600486246706    -2.152234280841
C     -3.311738506729     2.962527139537    -2.873568812897
C     -4.324191688690     2.059837941651    -3.099442451419
C     -4.193164114858     0.800042267955    -2.585033248611
C     -3.036627521977     0.453871708473    -1.851851762750
H     -1.423356993960     3.335149666556    -1.977715176641
H     -3.390524455700     3.964689094926    -3.263290338350
H     -5.206549296648     2.340849912879    -3.668633568803
H     -4.946448985518     0.049287746896    -2.724347306413
O     -3.037148076053    -0.770082661715    -1.412904525973
H     -2.125223168195    -1.154971267192    -0.910453727437

