# STO-3G

title

0 1
C     -1.627587800231    -0.202818621671     1.200376799326
C     -1.652379363388    -0.068501716627     2.603291847322
C     -2.034809428119    -1.153161497377     3.417375058773
C     -2.399635614299    -2.381816637181     2.830120985671
C     -2.388372837850    -2.516504518554     1.426955136445
C     -2.005501800660    -1.428906969839     0.615321662705
H     -1.317089465144     0.630560450860     0.576265837168
H     -1.375353101746     0.878483296696     3.062158655797
H     -2.053361423216    -1.038731176552     4.499328847096
H     -2.701239885326    -3.218902381690     3.456548047536
H     -2.680529479582    -3.458494287430     0.966662676432
H     -1.999810775264    -1.530441182242    -0.467604565903
C      2.078210643582     2.817877941428     0.565238170921
H      3.155395056531     2.972482556845     0.562972164567
H      1.523721540264     3.221898795515    -0.277430917965
C      1.421566922321     2.173940219139     1.565174562545
H      0.352804764471     2.051586078093     1.489430248736
C      2.061827340902     1.570540102443     2.745878991080
O      3.318161990327     1.608823615974     2.863395575977
O      1.249113763963     1.058096851501     3.773082774411
C      1.937798180671     0.416715852382     4.854323978139
H      1.195280009464     0.040814974526     5.590107750365
H      2.530459489990    -0.449865838064     4.482965938765
H      2.613252315165     1.133596367193     5.373721334763
Pd     0.819778387348     1.074441940093    -2.687078718205
C     -0.284848618836    -0.792730885368    -3.294044041814
O     -1.375069290322    -0.935510976353    -2.785961281917
O      0.688336060070    -1.070243562607    -3.997755878129
C     -0.253381892545     2.627534899558    -3.713571413203
H     -1.214025294302     2.367744068147    -4.163903605391
C      0.824657195220     3.157858171023    -4.606719032078
H      0.582553172410     4.206129748799    -4.875790850988
H      1.802464429641     3.145725947791    -4.083114457304
H      0.884261536730     2.544790699473    -5.528965448671
N     -0.085824198606     2.956890269829    -2.406595421584
C     -0.998961194109     3.181926568601    -1.410835095835
O     -0.986061053115     2.631225718548    -0.288915565070
C     -1.959846715251     4.272511340429    -1.676645130363
H     -2.577315971867     4.424752643900    -0.772566405228
H     -1.381029004275     5.184275424805    -1.901404689006
H     -2.597499785539     3.986124975379    -2.529405089527
N      1.496342674349    -0.929977215005     0.951145271106
C      1.193059795153    -2.108128949327     1.578853104659
C      1.248231618425    -3.297828807455     0.870543301454
C      1.595084166211    -3.300080565765    -0.466644950657
C      1.887315526327    -2.099573263345    -1.065803808603
C      1.801873427447    -0.929549055113    -0.285331450689
H      0.913767123489    -2.104961042793     2.626005930988
H      0.998826069293    -4.219775792684     1.367722757833
H      1.633657608507    -4.228325564575    -1.030233704780
H      2.169617037424    -2.033622797505    -2.096585261073
O      2.053071503022     0.242183947746    -0.956720101401
H      2.049767680043     1.003914727037    -0.310143689697

