# STO-3G

title

0 1
C      0.294564158720     3.066711320230    -0.087855883552
C      1.664356790339     3.338212657678    -0.294792493175
C      2.094540399349     4.665457796434    -0.500560788452
C      1.164456411300     5.723360516255    -0.502595385813
C     -0.200029076081     5.449806291128    -0.289757013077
C     -0.638451217679     4.124739949772    -0.078888549544
H     -0.348412437012    -1.235226696337    -0.460068888716
H      2.395651940924     2.531726378842    -0.287029545241
H      3.153515049488     4.866036567566    -0.652086358275
H      1.499360051479     6.745660413559    -0.661740337513
H     -0.925216101863     6.261078746217    -0.281765973934
H     -1.696348301989     3.933686506641     0.091362241997
C     -1.234032075779     1.366632911506     2.166000710966
H     -1.803210777476     2.285103686244     2.266685709978
H     -1.794619194882     0.438569747054     2.150580522331
C      0.145118955961     1.315767520482     2.377637316909
H      0.640799941814     0.356686694432     2.437237010831
C      0.957694543995     2.463104009645     2.820602183765
O      2.207294994723     2.332310404737     2.897811871496
O      0.332176127552     3.699347020239     3.067631376986
C      1.209719326732     4.798224912665     3.347970281769
H      0.607670671442     5.716194403056     3.516988404350
H      1.812618924945     4.600431596234     4.263137057198
H      1.891636934375     4.985945157690     2.487749391329
Pd    -0.374185609142     1.200400771084     0.099178660872
C      0.512699530032    -2.238201601834     2.007884317538
O      0.395451536814    -1.708531902978     3.126035738486
O      1.557900889593    -1.857969491938     1.200326701455
C     -0.509141183589    -3.351507458175     1.579217583653
H     -0.618168156530    -3.959166036846     2.485313234448
C     -0.048434341041    -4.262488287224     0.458174993029
H     -0.733906700231    -5.132861658281     0.391466424650
H     -0.086182473755    -3.723965040592    -0.509637104750
H      0.981441547145    -4.626674301593     0.650749805388
N     -1.862505364851    -2.876946501922     1.244981331318
C     -2.104463449911    -1.781620565301     0.636811482863
O     -1.182052777099    -0.879135210821     0.155860851121
C     -3.507998244221    -1.434439792885     0.385230856094
H     -4.154822682979    -2.237712641905     0.785506310612
H     -3.727517471258    -0.482353591064     0.890127760173
H     -3.644503768846    -1.346728998135    -0.706107670001
N      0.302112009130     0.778297890131    -1.886202253950
C      0.407384213112     1.737404544585    -2.860858447778
C      1.119610856363     1.481850220967    -4.014944829826
C      1.722647966157     0.260322548712    -4.211697334910
C      1.580253321302    -0.697885987964    -3.245129939069
C      0.835431818986    -0.409200025024    -2.078716256345
H     -0.065750565166     2.703003588284    -2.729903726977
H      1.204007487712     2.250516760465    -4.765392165831
H      2.284894725671     0.056559369945    -5.119104979489
H      1.997945577238    -1.678385170006    -3.348910027486
O      0.705800913308    -1.398751327326    -1.232123832567
H      1.415702403506    -1.878198565964     0.208924629221

