# STO-3G

title

0 1
C      0.243738392136     3.081423723236    -0.010783838997
C      1.620164926467     3.378070083489    -0.114822445900
C      2.043434195983     4.717760491216    -0.237244827806
C      1.099969212840     5.763531694847    -0.258504360562
C     -0.271496893214     5.464788518004    -0.150530328795
C     -0.703400566142     4.126887285627    -0.024092389209
H     -0.272075463072    -1.225107567468    -0.577204018010
H      2.361278825589     2.580873037592    -0.091246699944
H      3.106995265215     4.937139884964    -0.309639272964
H      1.429474370761     6.795587366078    -0.352686044191
H     -1.007554925989     6.266218994817    -0.159266402117
H     -1.767635068730     3.917004372702     0.064034573189
C     -1.429821350531     1.322114035358     2.051286112169
H     -1.984360332484     2.251794997895     2.126368719241
H     -2.012448669073     0.412478939964     1.954701783371
C     -0.075424026815     1.233782923828     2.380251835577
H      0.397892344636     0.264145278964     2.456517287793
C      0.717904593510     2.353976369501     2.918313170405
O      1.957715809123     2.204731703235     3.075298261635
O      0.091133546624     3.590332844429     3.161753641114
C      0.959255778329     4.666836032699     3.540972336236
H      0.357609244522     5.587295328072     3.697418123006
H      1.492653991744     4.430467070252     4.489526170692
H      1.703398049070     4.873049406317     2.738565448125
Pd    -0.390251787301     1.195112386334     0.069034620152
C      0.652187068919    -2.292126292182     1.838402812723
O      0.522237375293    -1.789547988920     2.968061066561
O      1.686542714815    -1.875917375255     1.037496278397
C     -0.347795739629    -3.416557486360     1.387395643378
H     -0.422854154784    -4.061025442653     2.271333854877
C      0.110892854365    -4.272472829398     0.222887475662
H     -0.554708131690    -5.156425690912     0.136724300094
H      0.039607456462    -3.698800435401    -0.722525078485
H      1.153058579052    -4.618001895229     0.380487953947
N     -1.718633977574    -2.960975077873     1.100609438439
C     -1.999897265427    -1.853925449444     0.531626180356
O     -1.115790313625    -0.913688776823     0.052529613390
C     -3.422462272437    -1.547404782916     0.350147719231
H     -3.891921794729    -1.528382650804     1.348588965411
H     -3.528141461657    -0.579272500318    -0.165734162389
H     -3.863321216075    -2.357991719443    -0.256848344222
N      0.373022467017     0.870158715641    -1.902831663113
C      0.495967705931     1.877882670954    -2.825422569673
C      1.241796479294     1.687102158734    -3.970698049120
C      1.862905583057     0.482883637632    -4.211340503215
C      1.704077520663    -0.523624714623    -3.298189688117
C      0.924257330253    -0.300942279207    -2.140128047311
H      0.008137441225     2.830934585980    -2.662151514670
H      1.338144453834     2.493058179526    -4.679440511416
H      2.451655883400     0.330004207508    -5.111913052165
H      2.134560873658    -1.493835708227    -3.439513477596
O      0.783186277707    -1.333918893119    -1.349768896115
H      1.529666507898    -1.862660115218     0.047547523605

