# STO-3G

title

0 1
C      0.607445123983     3.330895017955    -0.336507599855
C      1.430779228288     3.868519585719    -1.375723385902
C      0.933103288221     4.031715987129    -2.671182062932
C     -0.400766041529     3.656324102674    -2.979954002236
C     -1.225748396365     3.116308121662    -1.987980042684
C     -0.737041235932     2.946017300104    -0.664398213098
H     -0.310256222149    -1.788060115496     0.767035440313
H      2.448681724904     4.170694419578    -1.137586321381
H      1.568607725685     4.457288503599    -3.443977852187
H     -0.782661443902     3.800799066875    -3.987720037104
H     -2.252242752395     2.838970497041    -2.212893821492
H     -1.422747779789     2.641638027665     0.124399018136
C      0.839982058712     1.779984611778     1.470101007622
H     -0.118342062279     1.544073721688     1.937293436174
H      1.670616756197     1.239637270953     1.925876524418
C      1.097553849280     3.269998425256     1.148049722387
H      2.177260486952     3.420105207536     1.103221579906
C      0.538051254829     4.313206819602     2.070506853976
O      1.216647646653     5.348488459580     2.307387310958
O     -0.686789212622     4.076055770509     2.718392457254
C     -1.140486452331     5.108663923309     3.603672063129
H     -2.113514782358     4.807962815008     4.048738506920
H     -0.413600152643     5.267131427331     4.432294664052
H     -1.289849012391     6.064553561346     3.052396453815
Pd     0.789516671879     1.084097632277    -0.442592445158
C      0.999975533421    -1.163243386263     3.238421867426
O      1.920498663494    -1.083864630842     2.237430896563
O      1.336342006369    -1.030773647028     4.424349887154
C     -0.491864777861    -1.451323842338     2.872712690743
H     -1.087405657677    -0.740653203254     3.455061825512
C     -0.888649698724    -2.854597468824     3.279815136514
H     -1.973877348695    -3.000448752426     3.098416020395
H     -0.323472666821    -3.590221413344     2.672170541763
H     -0.678920559077    -3.019553310658     4.357580217186
N     -0.849941582373    -1.284937057886     1.466799559643
C     -1.754172184921    -0.360112544056     1.047701978251
O     -2.280450488856     0.522494557833     1.769867765688
C     -2.156457629664    -0.465069086561    -0.371553477340
H     -2.897394062231     0.324005658431    -0.591235467264
H     -1.267873757856    -0.357338921838    -1.009719650195
H     -2.609345780780    -1.461406539617    -0.518326987657
N      1.159012455443    -0.131818902324    -2.311166022949
C      1.283342618990    -0.190449382999    -3.670650226280
C      1.761060712301    -1.345370359847    -4.264512860881
C      2.115484124470    -2.440385480410    -3.497825455830
C      1.985180160437    -2.355279455602    -2.134047575352
C      1.497310632026    -1.156642738270    -1.576913377195
H      1.004700346638     0.664181232081    -4.276489340928
H      1.856046358478    -1.387989486761    -5.337330130826
H      2.489543885222    -3.347894560924    -3.964567205547
H      2.239385415569    -3.161998819207    -1.476827040680
O      1.365861662109    -1.058020236992    -0.269351064749
H      1.655706523433    -1.156640637222     1.267434585701

