# STO-3G

title

0 1
C     -1.904003042029    -0.730502257891     1.520151414735
C     -1.509857191722    -0.351063111168     2.834055482666
C     -0.989643467311    -1.307629784285     3.710262146655
C     -0.859033792475    -2.659734659021     3.302202536263
C     -1.250865990150    -3.053535296044     2.017687239499
C     -1.777601950244    -2.091722509920     1.112423917916
H     -2.411387022225    -0.014831090675     0.879404276610
H     -1.616301539255     0.688994485567     3.124839988711
H     -0.671114597087    -1.015012915794     4.706923087652
H     -0.445413545841    -3.392296347454     3.990498654801
H     -1.161925503436    -4.090889964698     1.706504410836
H     -2.188956021251    -2.411587217551     0.156888030147
C     -0.023058561307     2.651966763021     0.378811141684
H     -0.126302259337     3.527640884879     1.012572848812
H      0.093242547072     1.703825347661     0.898788204268
C     -0.046034545750     2.700122409871    -0.977141808325
H      0.021439947723     1.783296592492    -1.545227455907
C     -0.174627692999     3.927726730837    -1.780613966828
O     -0.310451276102     5.043764041240    -1.211821290851
O     -0.122742866985     3.821226504882    -3.181542069560
C     -0.278373491125     5.048550309669    -3.908186073024
H     -0.224919410241     4.841439420127    -4.998667654506
H     -1.267062471311     5.513753600063    -3.691484606494
H      0.532111208083     5.767615306290    -3.649923035761
Pd     0.038223323206    -0.829201518424     0.104792169268
C      2.680350680884    -0.340386152797     1.086659945618
O      3.636882013217    -0.189139456005     1.861080147924
O      1.431598641586    -0.644549987599     1.542149198147
C      2.846049703085    -0.187449565335    -0.477493777665
H      3.569818035959    -0.950508324378    -0.802336368539
C      3.371931192698     1.187105275754    -0.836981207858
H      3.472301636651     1.292178337304    -1.934632938623
H      2.674515098415     1.963741051379    -0.464216390409
H      4.366568349790     1.345408027452    -0.369495384868
N      1.540204823863    -0.365350173449    -1.079948873261
C      0.950527978348    -0.568890388583    -2.237875194161
O     -0.342065178766    -0.775509852336    -2.195244979650
C      1.667527247736    -0.569821556134    -3.520715454804
H      1.281793054208     0.273370088545    -4.119399767510
H      2.749399464330    -0.464770324747    -3.344502558453
H      1.454339806645    -1.527351100653    -4.027264792977
N     -2.925590540197     2.695580761564     2.206208577078
C     -3.570924962375     3.063770400830     3.356682970868
C     -4.954282308662     3.094730003192     3.394585364527
C     -5.692871533149     2.760782663598     2.277161145535
C     -5.019568438927     2.405070846534     1.136723544444
C     -3.609541295100     2.398087574834     1.159604795429
H     -2.995205481584     3.320672300008     4.238194806828
H     -5.453196171221     3.380351759196     4.305880088513
H     -6.779141706688     2.781120134713     2.300249662014
H     -5.523137949688     2.137147235815     0.229934645538
O     -3.041920618178     2.031297839533    -0.012017397657
H     -2.061945186717     2.163937995458     0.003717049222

