# STO-3G

title

0 1
C      0.125643561077    -2.282083005956     1.369423333036
C      1.452065356150    -2.788835023783     1.329004761905
C      2.316693023185    -2.573323856904     2.406125883295
C      1.879409911930    -1.848374009624     3.544904865845
C      0.574317884729    -1.347563916023     3.605262584599
C     -0.317767131715    -1.561901730637     2.517766373126
H     -0.595950487313    -2.504620476667     0.590193578739
H      1.795940673386    -3.334934363346     0.454923468929
H      3.335533981302    -2.949907207540     2.367862234868
H      2.565930717644    -1.678674926967     4.370632681113
H      0.232661088141    -0.802013653394     4.481231002201
H     -1.370622908311    -1.296051038968     2.591238212608
C     -1.074057507428    -1.417232140908    -2.044595014080
H     -1.582473238960    -0.540003994901    -2.437146906103
H     -1.687092867533    -2.058307771045    -1.419755961428
C      0.227826529837    -1.690033508938    -2.288099565457
H      0.685090518314    -2.574367354389    -1.866654403965
C      1.128912369268    -0.846340125465    -3.089606501707
O      0.741338192076     0.287063945875    -3.490487117724
O      2.425393240405    -1.315105281482    -3.357029489562
C      3.304986457607    -0.392902184348    -4.015307719697
H      4.297517123002    -0.871383559140    -4.159064439093
H      2.905923672875    -0.105866107925    -5.014057015873
H      3.455841904852     0.520667785183    -3.396535106871
Pd     0.054334818580     0.067811066242     0.790679507926
C      2.405022420386     1.195399953442    -0.382834388077
O      3.553558295237     1.242755963616    -0.848074371955
O      2.040819227319     0.256497210264     0.538151866289
C      1.285782035147     2.218247002978    -0.803431319539
H      1.339767183922     2.351120234150    -1.892778118089
C      1.487045486572     3.556902250078    -0.127192909373
H      0.703851745404     4.268383200331    -0.456824670202
H      1.420091540879     3.430004480536     0.973228267830
H      2.484018773590     3.968933992496    -0.389671212156
N      0.021363534834     1.667973071416    -0.357179700042
C     -1.234646583234     1.720861298377    -0.715019942729
O     -2.049741146246     0.918804229931    -0.082391316619
C     -1.702605570083     2.593966698765    -1.799094540967
H     -1.484588681778     3.637602002737    -1.519991032505
H     -1.159923452591     2.308902614761    -2.718308526473
H     -2.789621942307     2.446930846317    -1.932885831843
N     -3.061167254841    -2.317172870998     0.760959887942
C     -3.224765027014    -3.529488909895     1.379285497715
C     -4.338584431038    -4.302693148845     1.109365487669
C     -5.298217502974    -3.861878023323     0.223058110159
C     -5.117315090038    -2.642367975355    -0.374483378991
C     -3.965055707046    -1.888672306144    -0.058387693480
H     -2.472350210068    -3.885419825543     2.073570571989
H     -4.453072796843    -5.256148833561     1.598232581353
H     -6.176121694968    -4.464573491679     0.006136937844
H     -5.824237862666    -2.233351725577    -1.068025681479
O     -3.906157509745    -0.720189813691    -0.701678379332
H     -3.153005105157    -0.092937093598    -0.443642834094

