# STO-3G

title

0 1
C      0.998343175020     2.392839336064    -0.338369912184
C      2.358453613136     2.548371962574    -0.671708014570
C      2.810234849886     3.758689891765    -1.238237066521
C      1.909087042243     4.813999037370    -1.479397039063
C      0.549309477409     4.655094526183    -1.151253287641
C      0.091044181819     3.447241960971    -0.582666039855
H     -0.647652793444    -1.837509610456     3.288522686927
H      3.066715334134     1.738548901537    -0.508602203669
H      3.863060156272     3.870553154424    -1.488996152348
H      2.263080219500     5.746716186211    -1.911486951785
H     -0.152675388142     5.467253276936    -1.327063073382
H     -0.962458348772     3.349920743162    -0.323947975967
C      1.394912229268     1.030263744261     2.214261859017
H      2.187646099407     1.721099634556     1.948248064209
H      1.699109693085     0.006325548033     2.399666706540
C      0.118589141014     1.475023727151     2.561878030007
H     -0.571010225162     0.770761247458     2.999627200973
C     -0.252329622372     2.893775486531     2.719915881124
O      0.617071390825     3.793099250572     2.583543402156
O     -1.606267875921     3.213428658629     2.916286780279
C     -1.905427736372     4.610532941361     3.049261500345
H     -2.997819812841     4.742121560069     3.206361359209
H     -1.374795570507     5.046579166756     3.926518399387
H     -1.614372698895     5.168361938221     2.129884604962
Pd     0.152394754422     0.695948871905     0.329496611545
C      0.628084292721    -2.186358390838     1.832266736716
O      1.782404180629    -1.997193824226     1.364626628293
O      0.377499666080    -1.985311694319     3.144429489116
C     -0.643946687915    -2.410102086037     0.999137438536
H     -1.326832953851    -3.026694392018     1.601866505812
C     -0.448460024553    -3.091252515079    -0.331368115925
H     -1.439975908144    -3.289106949656    -0.788063815832
H      0.118317609868    -2.450158447670    -1.019267025157
H      0.088013246898    -4.052727689165    -0.194192153109
N     -1.249965970319    -1.060974406105     0.775778420004
C     -2.059074291256    -0.716937606299     1.793861777886
O     -2.072876478919    -1.258092351800     2.968197502980
C     -3.025946507634     0.360442546404     1.524321168976
H     -4.032407352650    -0.087497465063     1.581629706701
H     -2.923746038979     1.126818665928     2.308908387281
H     -2.856081539095     0.784674427403     0.519136113297
N      0.627453987529    -0.006129747152    -1.609847127504
C     -0.130930443513     0.441031144596    -2.658256587318
C      0.324685588679     0.293412667601    -3.951811805981
C      1.542450743782    -0.300694731626    -4.199660658571
C      2.273189823781    -0.754269067559    -3.133108994005
C      1.769219391050    -0.593694379723    -1.825169391419
H     -1.083944832274     0.920632705122    -2.467980149358
H     -0.273427661250     0.657907564164    -4.770691555099
H      1.911185900830    -0.412845789064    -5.215826972009
H      3.223624726967    -1.234025203142    -3.258461087019
O      2.555026044769    -1.094875104149    -0.890439824447
H      2.191717191184    -1.372961851830     0.029799312434

