# STO-3G

title

0 1
C      0.474360693777     2.558606965319    -0.041786042910
C      1.837892948110     2.877048027398    -0.231341697245
C      2.223983334702     4.177511799364    -0.616770413452
C      1.252329751405     5.175838767595    -0.827132569647
C     -0.108316647581     4.866476691023    -0.641000109171
C     -0.495387383021     3.567330333086    -0.246754344836
H      0.899794001738    -2.137556861381     3.974899007002
H      2.607064654321     2.120368736401    -0.079968821347
H      3.280072589320     4.404577715754    -0.752821675630
H      1.552033663892     6.176882286357    -1.128921175782
H     -0.867566154182     5.631076531977    -0.794915874784
H     -1.553637326924     3.358421683826    -0.094317797352
C     -1.268513953102     1.132619638783     2.335793907034
H     -1.919378591719     1.991498194231     2.202767003699
H     -1.749655180728     0.163655062421     2.396874803889
C      0.077821846910     1.280559968961     2.652613265219
H      0.681605674292     0.415170218745     2.884570011602
C      0.724715874880     2.570077704878     2.955843200430
O      1.951609741875     2.584905909869     3.235354554378
O     -0.035991516071     3.753209464446     2.922498235210
C      0.703027721347     4.972236224680     3.079594802670
H      0.006516507427     5.835647912579     3.023640261416
H      1.217162842131     5.000360637591     4.067102357582
H      1.456341252665     5.082405082029     2.266243872539
Pd    -0.191844265113     0.690768791852     0.373623615530
C      0.413301134191    -2.118366362003     2.091906243666
O      1.460262213974    -1.483243398507     1.808366803888
O      0.167830439561    -2.451053410884     3.394328943181
C     -0.705954522386    -2.483502877874     1.137287515378
H     -1.504834056412    -2.975042743475     1.705043082321
C     -0.249374467442    -3.435419372756     0.044896947397
H     -1.120678728989    -3.741767744569    -0.570353937557
H      0.487013404927    -2.939438768178    -0.614875184838
H      0.206147960310    -4.343212365893     0.492270318726
N     -1.197346869076    -1.223774350794     0.522546258357
C     -2.500521447649    -1.285069695106     0.164275313612
O     -3.280016315577    -2.275716586527     0.301245929811
C     -3.059887603735    -0.062801902574    -0.454560363071
H     -3.434683473821    -0.349783833548    -1.452478787042
H     -3.901500560105     0.269264057877     0.176939720479
H     -2.303547055937     0.726973842061    -0.549169738797
N      0.593913160745     0.210457485186    -1.499604422943
C      0.016636101776     0.739475072559    -2.623643208953
C      0.573701404256     0.504931666892    -3.863418923229
C      1.715857315512    -0.255609632954    -3.981978278621
C      2.273209154401    -0.769887831320    -2.841366957582
C      1.669660507366    -0.509207640434    -1.593406945290
H     -0.877762039719     1.344904561997    -2.538841331540
H      0.114763669479     0.927574829935    -4.742126805901
H      2.164060274384    -0.441392760073    -4.954513727760
H      3.163602941183    -1.366664839392    -2.862548838517
O      2.306608813620    -1.058373584820    -0.575397990722
H      1.890297649725    -1.067222430516     0.352905548921

