# STO-3G

title

0 1
C      0.269074269975     2.673631529361    -0.108405216358
C      1.537204232055     3.162418885655    -0.495951443917
C      1.713176861752     4.521966133155    -0.830192068126
C      0.625737869186     5.413730967388    -0.788110657092
C     -0.641296404354     4.936547576881    -0.404040817590
C     -0.817199353588     3.579996266016    -0.060743179153
H     -2.586090223206    -2.449487113098     2.338661280623
H      2.407291845092     2.510486757453    -0.541685668683
H      2.700580957293     4.874508113760    -1.121917923593
H      0.763418029297     6.460479323593    -1.047627083770
H     -1.490938615921     5.614844942301    -0.362161314072
H     -1.808388844622     3.247874218384     0.242641907285
C     -1.101851373806     1.157442939216     2.326727267915
H     -1.559000188948     2.141432582386     2.321250143365
H     -1.765593784495     0.307535715318     2.434875845658
C      0.267912301378     0.988136119359     2.511091135602
H      0.664717075674    -0.007697524206     2.658912247528
C      1.215589858724     2.083556477244     2.769070831219
O      2.431929264155     1.873424815199     2.523644566619
O      0.726990073411     3.382050082021     2.994514976991
C      1.713188889899     4.420806977558     3.066972058239
H      1.208842520600     5.393954696711     3.249122212160
H      2.425819824773     4.233937692289     3.901976823854
H      2.275393585783     4.500229779142     2.109295267603
Pd    -0.243413202774     0.735983513735     0.236226743853
C     -0.620344696119    -2.332538368091     2.514730702452
O      0.385663966664    -2.069707109532     3.200934421841
O     -1.860035579876    -2.457548661198     3.069872157010
C     -0.631590533959    -2.427747541292     0.956968611483
H     -1.275587577364    -3.277602687773     0.681945386811
C      0.738163974282    -2.647297997594     0.366453186666
H      0.684012172495    -2.596858489954    -0.740593169958
H      1.440616921082    -1.884772342887     0.747446630522
H      1.116480997751    -3.647581910039     0.662689015600
N     -1.212673027773    -1.192325869458     0.366289719855
C     -2.551048077608    -1.153483216629     0.401683348027
O     -3.315027190204    -1.984032763819     1.020316726630
C     -3.190779503324    -0.058691316628    -0.349395873301
H     -2.945918201726    -0.195375533420    -1.413585663396
H     -4.284872320147    -0.139900829053    -0.210141517588
H     -2.835764873303     0.908770454109     0.033606045501
N      0.643387678962     0.234486705012    -1.602832283237
C     -0.071167839789     0.129700872832    -2.765766703491
C      0.555463575961    -0.285570572753    -3.924080279247
C      1.898764696788    -0.597881795849    -3.919193547452
C      2.587637019472    -0.478380420643    -2.739997238562
C      1.903817712263    -0.049368361971    -1.587564496750
H     -1.122428466866     0.384423447462    -2.780752322563
H     -0.012082456507    -0.365450457867    -4.837084873499
H      2.398305576447    -0.927864365612    -4.826405345360
H      3.632846224634    -0.705359482349    -2.663351005663
O      2.666248653809     0.025784786590    -0.493793922365
H      2.169565953531     0.362293623297     0.295059782845

