# STO-3G

title

0 1
C      0.417897859302     2.590326807123    -0.048698618275
C      1.759940046942     2.960974774841    -0.289217918244
C      2.082506403011     4.282476013160    -0.661849124531
C      1.067811437753     5.248746326996    -0.808396376614
C     -0.271680673790     4.886622849521    -0.570825480447
C     -0.595431992646     3.566844207625    -0.188557341414
H      0.926059661188    -2.151887764580     4.015545502739
H      2.560759120908     2.229409343753    -0.186285669998
H      3.123097151041     4.551080769770    -0.836589302875
H      1.318472637499     6.266198196847    -1.099928629980
H     -1.063576650642     5.626087607037    -0.674981392903
H     -1.638353076941     3.317094584005     0.003383636530
C     -1.131895396989     1.041998833320     2.396019700472
H     -1.840342901423     1.862532859035     2.338212123158
H     -1.554687767462     0.046964905787     2.466025632246
C      0.222698447547     1.263897018903     2.621400160018
H      0.892978924011     0.430998326569     2.778910327574
C      0.810261622361     2.582308291422     2.921468844265
O      2.049759476859     2.664520239149     3.123484362052
O     -0.019045621779     3.718114743348     2.966486595317
C      0.655155456530     4.974616520637     3.119628679557
H     -0.092791754198     5.795746457446     3.129785881609
H      1.222759440328     5.006279560879     4.077302771634
H      1.352738907958     5.152243298504     2.269340931521
Pd    -0.171806285198     0.693170201991     0.345157811287
C      0.390073944579    -2.131809341943     2.146344997991
O      1.442156769735    -1.523644429464     1.825983114274
O      0.170983749285    -2.449230155046     3.456697019868
C     -0.753033325400    -2.484085010719     1.216888504446
H     -1.584388340135    -2.875210926835     1.816188739889
C     -0.359486014992    -3.551930027944     0.209081103665
H     -1.246527235001    -3.848160157798    -0.388278938796
H      0.413402282761    -3.162875809566    -0.481714924585
H      0.030238600035    -4.449658714433     0.732627467937
N     -1.150548505197    -1.249827311217     0.493103858968
C     -2.444358635384    -1.264095314010     0.097202246954
O     -3.292107899451    -2.187117975330     0.287141541264
C     -2.874262069252    -0.055825145225    -0.637127957210
H     -3.933277776142    -0.186890071629    -0.926951834353
H     -2.775140203575     0.817080655980     0.023351096009
H     -2.253444230183     0.029223420192    -1.542855107489
N      0.629879105044     0.253190168019    -1.539684185633
C      0.176400062888     0.908251258614    -2.655571472976
C      0.734469167936     0.645525445019    -3.888935919903
C      1.758023868640    -0.267016765150    -4.011119864398
C      2.201727486642    -0.897251288123    -2.879472811697
C      1.604195713224    -0.600680123758    -1.636179993825
H     -0.627328915235     1.630164332980    -2.571419427173
H      0.369694665062     1.165229874494    -4.759796882857
H      2.206267076220    -0.476779659405    -4.978744545960
H      3.003074876780    -1.609155537875    -2.903041529386
O      2.145650361394    -1.258606337862    -0.629346393935
H      1.768308157608    -1.190253436143     0.311521948056

