# STO-3G

title

0 1
C      1.271454288089     2.898779857789    -0.569695767655
C      2.614625114395     2.754981860628    -0.974499861462
C      3.306252725579     3.863419422007    -1.505068777568
C      2.660624160061     5.107772076447    -1.643621256968
C      1.317342903675     5.242720690429    -1.246891273825
C      0.618012425916     4.140788667292    -0.707770788983
H     -0.187483031644    -1.189788966350    -0.118793761406
H      3.122149822492     1.796584925654    -0.885648256732
H      4.343817573376     3.747727413425    -1.811104321615
H      3.197806812143     5.958701874414    -2.055529343801
H      0.809882709830     6.199708801130    -1.350849966194
H     -0.423221572383     4.266875448895    -0.415819692885
C      1.228115305999     1.768144163201     2.210727972818
H      1.329319510340     0.873445719438     2.813640973334
H      2.155908937420     2.187503620382     1.836793260342
C      0.031467309374     2.466306664640     2.125469038009
H      0.005711011445     3.425637574527     1.636426209763
C     -1.172973884690     2.150957031877     2.910952056202
O     -2.252673290739     2.713902855180     2.590375699735
O     -1.057510139985     1.376543455778     4.076209519260
C     -2.263361369303     1.193630267871     4.831464204004
H     -2.051901951334     0.543762403375     5.707331288247
H     -2.650820670972     2.168737971588     5.202509323541
H     -3.046371148992     0.693203257122     4.217791708328
Pd     0.360098591530     1.257839241422     0.142983127960
C      1.922870309605    -1.252628707157     1.766998476888
O      2.587790036220    -1.118817863471     2.807226892847
O      2.467039982128    -1.062197312464     0.542167674758
C      0.411674226240    -1.627426425376     1.852174250134
H      0.070993785952    -1.347279268154     2.851048519370
C      0.201165608009    -3.119942869321     1.674297576648
H     -0.866690432475    -3.370947553136     1.842452399233
H      0.480590058673    -3.418403150414     0.642089826680
H      0.818440912405    -3.684104888330     2.404323995750
N     -0.430321305545    -0.915661949999     0.849189352842
C     -1.768666670946    -0.702924627311     1.165489500588
O     -2.243229114543    -0.808026389178     2.309510408430
C     -2.655651472123    -0.269499917508     0.066539119141
H     -3.482880935290    -0.997353406026     0.008980146544
H     -3.051523614511     0.726721107646     0.328228369816
H     -2.118684663772    -0.243517355826    -0.895089357808
N      0.092120062997     0.700081772263    -1.876854279521
C     -0.404464364554     1.581045958253    -2.802063233166
C     -0.456865741214     1.234446743167    -4.135237131904
C     -0.009063505210     0.004721988410    -4.559951388266
C      0.478054630746    -0.868169056978    -3.626045507004
C      0.522610256330    -0.491487272486    -2.263571266466
H     -0.780085908965     2.546042375506    -2.487333021631
H     -0.849947697391     1.938392316045    -4.850434287120
H     -0.048193744306    -0.269631491364    -5.610854703936
H      0.831043582896    -1.844966687586    -3.889277889179
O      0.974494138293    -1.386309415350    -1.445297443644
H      1.865507102430    -1.204614913684    -0.290564053440

