# STO-3G

title

0 1
C      1.869798003630     2.602298915739    -0.337475936302
C      3.153997089222     2.479534793503     0.230707069620
C      4.035525963007     3.580228195429     0.194656275362
C      3.638515765183     4.791389630004    -0.405189953127
C      2.353801327974     4.901870683125    -0.970122030580
C      1.462169197340     3.807640095408    -0.939430465325
H     -4.031581508015    -0.480788122392     1.555258831942
H      3.468095834175     1.552130885149     0.705645704967
H      5.024426016602     3.487006834780     0.639006346682
H      4.320582957894     5.637843934303    -0.430818059531
H      2.038060720199     5.833824004856    -1.434347578417
H      0.474363801618     3.905849067276    -1.383688992304
C     -1.042728158002     1.841216489771     0.780153796389
H     -1.194114127954     2.885742170440     0.527200731277
H     -1.812213061528     1.161851769307     0.425870306808
C     -0.111430269830     1.425073388444     1.734633400406
H     -0.116934584008     0.397680998053     2.077419175763
C      0.713856155568     2.347455539261     2.535156737242
O      1.613915371734     1.870397409110     3.273560206656
O      0.558188932547     3.735133851906     2.369598531876
C      1.512109213037     4.559334452885     3.053076652449
H      1.292112293718     5.627834389618     2.842664460761
H      1.457805574847     4.400340335147     4.153895906111
H      2.545032194895     4.344413859197     2.696747203178
Pd     0.681219921455     1.016024534222    -0.389803981817
C     -3.231268582320    -0.648899621109    -0.764789844935
O     -4.257647889773     0.031796439079    -0.574904706984
O     -2.585541319215    -0.705403260704    -1.947158182171
C     -2.618764550351    -1.491262334955     0.389713020628
H     -1.526350190063    -1.442360205791     0.373432028259
C     -3.029153675622    -2.946055917939     0.299613251400
H     -2.558669810224    -3.513541206506     1.129524567892
H     -4.132303251417    -3.022071170527     0.398561072504
H     -2.706033570505    -3.381696343586    -0.667956554541
N     -3.131631609916    -0.946164182218     1.642358096076
C     -2.395700820107    -0.905464322064     2.774013018385
O     -1.202797850048    -1.293204582760     2.871054128000
C     -3.072306887462    -0.317098637312     3.946579465962
H     -2.374826786683    -0.329030867896     4.802263063118
H     -3.356814573484     0.716356960390     3.687773426338
H     -3.967657780601    -0.924692515402     4.164282565098
N      1.682035392725     0.132417249677    -1.966782720327
C      2.777449288983     0.348147428408    -2.753045270735
C      3.033716992337    -0.507916885135    -3.807383481638
C      2.197808573300    -1.576687908982    -4.071415691146
C      1.101941291181    -1.770699548446    -3.266426841535
C      0.874354362007    -0.877542130205    -2.199297202388
H      3.436270910585     1.185183473184    -2.551488517077
H      3.898745830896    -0.336861774295    -4.427468523201
H      2.403735317556    -2.249622708816    -4.899801855713
H      0.419783875305    -2.582789830995    -3.415676646639
O     -0.167137050024    -1.041559437963    -1.432448478654
H     -1.595455701701    -0.987514424420    -1.843677989134

