# STO-3G

title

0 1
C      1.751634101315     2.831697315173    -0.314784622864
C      3.078868399168     2.922848159653     0.157774667495
C      3.798162209406     4.126540634440     0.006598830043
C      3.200709574253     5.238418880472    -0.618953682175
C      1.878794903506     5.141607472549    -1.093979656410
C      1.150894054421     3.941608867731    -0.943313014935
H     -3.612132003416    -0.215712806803     1.072809981981
H      3.552736259742     2.071406144628     0.643451484577
H      4.819474612592     4.190736268028     0.377232618597
H      3.756827380756     6.165889131878    -0.734848211656
H      1.409151341924     5.995034757439    -1.579520506685
H      0.132028435060     3.883248834821    -1.320648944431
C     -0.892405464035     1.878951911777     1.022517785698
H     -1.019837069142     2.937368745749     0.819699070046
H     -1.645660087810     1.219163626757     0.602564127938
C      0.052666392317     1.410767559668     1.941899861176
H      0.051973905147     0.364677399757     2.225709106123
C      0.911877578961     2.285992183945     2.757754904932
O      1.830847734308     1.766573342466     3.442085204403
O      0.765947772942     3.681294061093     2.664764815827
C      1.748189508417     4.463630393377     3.357128710793
H      1.532141883984     5.542725349571     3.204030892744
H      1.725169113453     4.252817998539     4.450315544857
H      2.767739360517     4.257440953015     2.959580047197
Pd     0.811699427862     1.089572834496    -0.172958874268
C     -2.445562320263    -1.015865278118    -1.069425563311
O     -2.582629095956     0.220999211769    -1.113872426414
O     -2.176260600264    -1.763953722641    -2.190400203578
C     -2.573384455433    -1.843203454862     0.209876630255
H     -1.583411060639    -2.265175271573     0.416470728227
C     -3.593150021518    -2.958895886993     0.111092237024
H     -3.602957751875    -3.528255084414     1.063596677199
H     -4.599396009792    -2.523468336643    -0.053560669828
H     -3.336477108348    -3.649328485873    -0.718060184818
N     -2.964047345555    -0.959674386854     1.304784168760
C     -2.349207387722    -0.992354695145     2.517483731338
O     -1.392627986098    -1.739242145703     2.822382767750
C     -2.889635812936    -0.048681130096     3.519566871773
H     -2.315777937434    -0.162182598794     4.455895404315
H     -2.783463217505     0.972338481544     3.119348278448
H     -3.952353875641    -0.296930463214     3.682349952478
N      1.701191402687     0.142546592334    -1.777448530958
C      2.586801093044     0.313970600870    -2.799728776805
C      2.789944208086    -0.716594491684    -3.699374469866
C      2.115236404850    -1.917264475369    -3.569291899783
C      1.224507390822    -2.066471321325    -2.534958429998
C      1.042954234641    -0.998114353825    -1.630993027276
H      3.120721008614     1.251706882498    -2.904067571824
H      3.493005127712    -0.581161841339    -4.504873907083
H      2.286902438354    -2.727695212793    -4.272773181723
H      0.677933041579    -2.972341882634    -2.364983763710
O      0.205818394059    -1.111768248987    -0.646381263297
H     -1.850852392514    -1.170440706646    -2.903590359778

