# STO-3G

title

0 1
C      0.691531818508     2.546837760720    -0.883691058216
C      1.606174637426     2.909016891927     0.121388123627
C      2.397911613193     4.063318576103    -0.067622836301
C      2.280916566900     4.833342293597    -1.241002515352
C      1.367787639625     4.448062131283    -2.241689118136
C      0.567829479519     3.298378018266    -2.069332870355
H     -0.976822156853    -1.004862783195     3.839364131937
H      1.713585546203     2.302202815595     1.016559155683
H      3.106596314787     4.351435201328     0.706282532547
H      2.895744333703     5.720325488455    -1.375730456646
H      1.272908842204     5.033378206273    -3.154134715403
H     -0.133914704036     3.007963261759    -2.849467433407
C     -1.606367004062     1.526532675027     1.011161579091
H     -1.034214635165     2.251894065199     1.579658318737
H     -1.764370251184     0.566896510999     1.493679841845
C     -2.327226231827     1.864147171305    -0.135044235685
H     -2.987236310896     1.129608887963    -0.580489259616
C     -2.473020134887     3.236368455591    -0.649655390003
O     -3.017490472284     3.402134107153    -1.771702483992
O     -1.902883509837     4.308343270561     0.057380685476
C     -1.971060685546     5.590931904467    -0.580330756933
H     -1.483285653719     6.349382317648     0.069120416849
H     -1.432767816393     5.576801719152    -1.554870213567
H     -3.029014456374     5.897660150241    -0.743295994950
Pd    -0.360128448082     0.870256503509    -0.727200801678
C     -1.827355366018    -2.133267595293     1.832960482127
O     -2.588940635150    -2.058498008820     2.817373551007
O     -2.216116130042    -2.576652353645     0.624683334917
C     -0.337716201596    -1.694729317836     1.975734667671
H     -0.002261203838    -1.145564909904     1.093787041930
C      0.583602927268    -2.877047007361     2.184834684757
H      1.631051832537    -2.519079136465     2.267888229596
H      0.308342779489    -3.391542040522     3.129592261661
H      0.506350098537    -3.584918778101     1.334194292533
N     -0.253869100675    -0.827573976026     3.145641105908
C      0.555284578490     0.251583646780     3.197742278431
O      1.330709319207     0.619944617240     2.277920084761
C      0.466927981854     1.045721290469     4.438701568606
H      1.159461935368     1.902333799381     4.366222900831
H     -0.574877446142     1.391196666531     4.547973458081
H      0.746238122867     0.390764435404     5.282497210263
N      1.013922153889    -0.335509049440    -1.704985649728
C      2.280997536724    -0.286137589235    -2.209367534202
C      2.877298866984    -1.451920812478    -2.653789761645
C      2.207163932658    -2.659771598578    -2.591283158387
C      0.934711363506    -2.682713446685    -2.073029715251
C      0.361062132944    -1.473113787252    -1.631645622434
H      2.809667637246     0.659156492480    -2.260027622446
H      3.878004808302    -1.412292344850    -3.052412165654
H      2.679117392024    -3.573308643034    -2.943564899498
H      0.362400278493    -3.585108477678    -2.001438714083
O     -0.834981021702    -1.472874815406    -1.110096754606
H     -1.605156640430    -2.270672289498    -0.157777478405

