# STO-3G

title

0 1
C      1.101230823880     2.643038978160     0.151584044205
C      2.297492121522     3.212921632313    -0.330895299148
C      2.369653463420     4.607659088939    -0.530831143041
C      1.253884786651     5.422622228000    -0.257341030105
C      0.065612646916     4.839917706446     0.223986587402
C     -0.019661358163     3.446645295386     0.436282503592
H     -2.846649472712    -1.406154635078    -0.554152314880
H      3.164667683936     2.590539015349    -0.543151990191
H      3.294710942898     5.049554669588    -0.895988619757
H      1.311426429900     6.497776937553    -0.411358644986
H     -0.797757672070     5.463955328174     0.446499030760
H     -0.937433467732     3.005853867128     0.819061926460
C      0.410050095306     0.797824786038     2.494918465447
H      0.008410530266     1.788174108150     2.670232379514
H     -0.296609082700    -0.020185224030     2.543805903613
C      1.777695753521     0.529749588924     2.448091483770
H      2.105966557757    -0.501568917364     2.390341025191
C      2.832554535072     1.522096980017     2.715551743250
O      4.026663645152     1.210146247892     2.469975191965
O      2.477223709674     2.833144043995     3.075448647959
C      3.551799875973     3.778929914633     3.155960483537
H      3.143865119043     4.772063537722     3.442663070114
H      4.295460339987     3.470048806220     3.924991033154
H      4.057173043099     3.886642112947     2.169738280095
Pd     1.020181655973     0.667778560846     0.317703206877
C     -1.218677850300    -2.291256063674     1.446781075576
O     -0.391386233782    -2.200604058931     2.373038876180
O     -0.945278758568    -2.796021686053     0.215206526767
C     -2.649305605266    -1.697981403430     1.520210066603
H     -2.708069915028    -1.054649234018     2.401251487672
C     -3.731211739792    -2.751981292633     1.588055294353
H     -4.723085139984    -2.257649805655     1.643134802375
H     -3.696346842432    -3.380782593029     0.674612287783
H     -3.588779765023    -3.388924729598     2.485126952828
N     -2.864754405583    -0.888922292729     0.318352648333
C     -2.629820792684     0.449154395504     0.294211656790
O     -2.337799705090     1.153043932948     1.292057637044
C     -2.731527044002     1.080394399163    -1.038274701884
H     -2.552177843642     2.164768387382    -0.939459658341
H     -1.974528233670     0.618024939545    -1.694034625396
H     -3.748011405550     0.893440003452    -1.426603911837
N      0.990978089637     0.327721935943    -1.725448275101
C      0.958413182215     1.038681869294    -2.890554507339
C      0.926636692603     0.363722031562    -4.095757033650
C      0.939044674545    -1.018036626802    -4.134160383680
C      0.983264387882    -1.709800345526    -2.949033295293
C      1.015458641793    -0.988287796387    -1.737035308397
H      0.943356239164     2.122398289382    -2.866486895688
H      0.894890229892     0.925872778971    -5.014889082202
H      0.916502466391    -1.546309044181    -5.083747929054
H      1.002460434558    -2.780110161257    -2.909471317059
O      1.056819544150    -1.632020746694    -0.604792922382
H      0.007057511915    -2.535612803306    -0.125121713847

