# STO-3G

title

0 1
C      1.410331350411     2.581628596566    -0.682916930402
C      2.682845907420     2.451486870190    -0.091159524345
C      3.721482125479     3.330021742086    -0.466461834652
C      3.503634849659     4.320989084655    -1.442508157220
C      2.238820450979     4.427422383813    -2.052126103826
C      1.190817369444     3.560849842131    -1.676137146590
H      1.289063676714    -0.742380092654     1.604912920732
H      2.882231849171     1.649241835604     0.613378989709
H      4.701594933239     3.221777396427    -0.006608934052
H      4.309288484281     4.991621615863    -1.731734352651
H      2.061609581615     5.180958794597    -2.817169746523
H      0.221574727356     3.661476134463    -2.161556904491
C     -0.821218503671     2.561195161413     1.667457320661
H     -1.468758419856     1.870244900782     2.197485322350
H      0.116871795251     2.797727906913     2.159904522460
C     -1.205172430380     3.292085204248     0.552849348842
H     -0.536738127917     4.044251984614     0.168130993417
C     -2.554306658428     3.314927635116    -0.037124522734
O     -2.720238964814     3.942796040576    -1.113516511114
O     -3.534017797066     2.429511933536     0.442406517133
C     -4.824880459926     2.523976785409    -0.178200394448
H     -5.518805529478     1.796135233187     0.297681490882
H     -5.254460239281     3.543333595362    -0.045450554022
H     -4.765447748346     2.288457681489    -1.265370794907
Pd    -0.050952553683     1.348444446370    -0.108522466623
C     -1.873263119613    -1.288291944721     1.271221202767
O     -2.987792091326    -1.777146897328     1.444697677586
O     -1.768937357442    -0.088133710190     0.518332506981
C     -0.500828803919    -1.850046677070     1.651746209956
H     -0.054090205467    -2.224310635515     0.719937319047
C     -0.615330969631    -3.003214698870     2.627623658613
H      0.398007530388    -3.393279758744     2.857755638154
H     -1.088703526637    -2.653203614380     3.568400904336
H     -1.226910178760    -3.819862057058     2.191240646987
N      0.429654661628    -0.865657849146     2.188282307847
C      0.128658899770    -0.064243081431     3.228335871800
O     -1.017537237597     0.066018379576     3.737665463306
C      1.275258709870     0.673964770768     3.795567727814
H      0.917824645265     1.318755387013     4.616756129143
H      1.985581729218    -0.080260314389     4.175303636173
H      1.756909178853     1.259716222121     2.995483431919
N      0.816457918548    -0.015691682463    -1.385972492877
C      0.467013632377    -0.032212459882    -2.707228244822
C      1.135798077073    -0.850716573233    -3.590688406714
C      2.168718447985    -1.652840253091    -3.159531747882
C      2.517124628785    -1.617511791204    -1.836808586630
C      1.826202271724    -0.764569967154    -0.939497093500
H     -0.346289299333     0.592858268670    -3.056500608888
H      0.849852631630    -0.857661220358    -4.629280392636
H      2.699817868283    -2.296798704456    -3.855209812787
H      3.318805613357    -2.206286318485    -1.439801839453
O      2.231110575086    -0.769430101873     0.276329454648
H     -2.679685802238     0.203855476552     0.297375579537

