# STO-3G

title

0 1
C      0.702518093294     2.532011358815    -1.039283642951
C      1.537049411281     3.605933848155    -0.666244647883
C      1.823660134795     4.626791026028    -1.599311353016
C      1.277666642110     4.579333835155    -2.895668752692
C      0.441981036939     3.504045599719    -3.258821855215
C      0.155833423793     2.476088966530    -2.337585819517
H     -0.568165235620    -1.712313796843     4.470967169115
H      1.958150238386     3.664101362218     0.335364559183
H      2.467985203740     5.453783657972    -1.306989765054
H      1.499058039376     5.366219571855    -3.613132082124
H      0.013185330118     3.456411879957    -4.258157728229
H     -0.482579675670     1.644409256139    -2.627060967338
C     -0.729584493542     2.218266727261     1.914598816487
H     -0.166394840278     3.098722215597     2.208077276782
H     -0.765753486844     1.389236085718     2.610695413535
C     -1.630180832494     2.215466364805     0.855057154535
H     -2.247533129574     1.340895340672     0.708867356301
C     -1.985878073348     3.402889518637     0.058081271307
O     -2.866631548496     3.297560806631    -0.835066570522
O     -1.370354298717     4.636745680205     0.340098767054
C     -1.671361682474     5.703085335163    -0.570248323814
H     -1.119558771537     6.616702269865    -0.263200204576
H     -1.353214885451     5.437696364986    -1.604366373915
H     -2.760981346716     5.932855323062    -0.565556019431
Pd     0.387348710361     1.086209617660     0.291457856708
C     -1.445564094127    -1.703407220210     1.355084616180
O     -1.968829835835    -0.589822292915     1.596734320402
O     -1.338832171549    -2.286785248730     0.169410495974
C     -0.763253192895    -2.535221715161     2.481364811358
H      0.055992350413    -3.083649062491     2.003489866070
C     -1.712721653602    -3.522195967034     3.125431924178
H     -1.169575546034    -4.117508025348     3.888159953255
H     -2.538716672991    -2.968884909432     3.618419670848
H     -2.130917506960    -4.207274210014     2.359167723852
N     -0.226887378464    -1.649200131302     3.520750682285
C      0.646622240367    -0.671455678373     3.214207264611
O      1.024944394734    -0.389151031079     2.045344384722
C      1.180203980742     0.103443748395     4.353610982540
H      1.881941162871     0.866544054203     3.975685479678
H      0.328961072483     0.573315295947     4.874900781815
H      1.702305122185    -0.599154736774     5.026837949567
N      1.398970784250    -0.122634112615    -1.037913337316
C      2.755120266418    -0.062555342550    -1.196793444048
C      3.367207770431    -0.812554026958    -2.179251361327
C      2.623010999870    -1.623537497560    -3.007504570839
C      1.265311506007    -1.670722435398    -2.830302882296
C      0.660331647754    -0.892991615575    -1.813909930202
H      3.345752821086     0.576227392259    -0.550726123734
H      4.436165720517    -0.756736850892    -2.299464995156
H      3.102038598434    -2.211940983755    -3.785378844978
H      0.631256174770    -2.275750854789    -3.445973992704
O     -0.629673812935    -0.979249137217    -1.714440509593
H     -1.171191629563    -1.637722250824    -0.711849213037

