# STO-3G

title

0 1
C      1.312270903346     2.978445775870    -0.908321933351
C      2.158034940700     3.303674667126     0.168482201113
C      3.165677100710     4.275483823439    -0.024240940027
C      3.320757124106     4.915901972690    -1.268077420803
C      2.461364619414     4.585809230064    -2.334606067358
C      1.454524942086     3.613554045891    -2.159938517498
H     -0.779014224742     0.714893184410     3.132953815796
H      2.051192645501     2.828925825313     1.140120478556
H      3.820885695895     4.528524687162     0.806832256221
H      4.097013059375     5.665595272449    -1.404197762505
H      2.567487146190     5.080988450019    -3.297959064120
H      0.795943925348     3.364734555163    -2.990005557142
C     -1.140722204096     2.292049564433     1.021457219630
H     -1.708307050230     1.403469626533     1.298703483946
H     -0.339903088454     2.587320046074     1.693786861340
C     -1.552226097678     3.112081813713    -0.029963596762
H     -1.047201315749     4.050356568630    -0.199769933651
C     -2.785922184370     2.911623342310    -0.810001323559
O     -3.020496934405     3.687759432447    -1.772016250546
O     -3.555842736649     1.756200153270    -0.597657864904
C     -4.662030472529     1.562698830053    -1.489668611953
H     -5.190762463531     0.623128113058    -1.219376718154
H     -5.386083919673     2.405265183080    -1.412804723637
H     -4.309685282666     1.469356507024    -2.542039041043
Pd    -0.062022742168     1.547311750487    -0.772622755334
C     -0.560603852919    -1.768618208855     1.870964348177
O      0.157531936554    -2.612096253936     1.304032013136
O     -1.523373605010    -1.029938975325     1.262954460025
C     -0.356917087485    -1.347308424954     3.347914935528
H      0.454396351164    -1.960003876279     3.750626154034
C     -1.584624276327    -1.553472736395     4.207877657068
H     -1.362155720738    -1.240125922554     5.248879020021
H     -2.421179841400    -0.933485452866     3.823533482791
H     -1.883031849593    -2.621951837895     4.201984619219
N     -0.018059409315     0.082554547437     3.369535714718
C      1.203676971794     0.666487395709     3.240737706783
O      1.345994363032     1.887184005236     2.971554145660
C      2.403334930094    -0.171938530752     3.445861472175
H      3.297650643920     0.468392548888     3.342382191514
H      2.357733018645    -0.588139499022     4.465858212260
H      2.420716502038    -0.965346138466     2.677983310902
N      0.937364436307     0.124806209796    -1.897588250966
C      2.121848538587    -0.083859729733    -2.542553690211
C      2.394492146950    -1.331406474107    -3.072391389324
C      1.484508534326    -2.366087368055    -2.951226399300
C      0.298013826787    -2.128174053132    -2.302545899788
C      0.056999102104    -0.844187191189    -1.775238247483
H      2.839580284430     0.723390706694    -2.635025359770
H      3.331801791244    -1.497263788403    -3.577375727112
H      1.705321164519    -3.349048056578    -3.358668745373
H     -0.441400083117    -2.888893904287    -2.156442262345
O     -1.054837889605    -0.599478708882    -1.133066574566
H     -1.434744142191    -0.999613313830     0.222929442665

