# STO-3G

title

0 1
C      1.005811515015     3.547671285740    -0.851962840445
C      2.154907935790     4.138984864454    -1.410011005264
C      2.047305817805     5.408656659267    -2.018250243699
C      0.805800161595     6.071093940782    -2.064979841938
C     -0.333659827188     5.462575309048    -1.502545165630
C     -0.243901939622     4.194436310163    -0.889980040924
H     -0.327656204509    -0.351250599986     0.543754883068
H      3.116001647257     3.630288251160    -1.386443917147
H      2.932100438937     5.872916232592    -2.449361819347
H      0.727101896979     7.050220716515    -2.531892078226
H     -1.296124442197     5.969387696068    -1.535967672045
H     -1.121829637248     3.715023869811    -0.466354952690
C      2.321024244325     2.330149792550     1.596028521799
H      2.882144420692     1.439021722460     1.872500412436
H      2.891790427130     3.150779795552     1.178395321892
C      0.997193034852     2.520484454432     2.021476297504
H      0.514745482284     3.473270124427     1.865725729117
C      0.311773435137     1.641161085209     2.987945467794
O     -0.784178239810     2.020152954249     3.481818080928
O      0.988195835097     0.517406810807     3.492339619032
C      0.354658996139    -0.158378464704     4.588149022651
H      0.941147381153    -1.066609159466     4.849685036681
H      0.306184521238     0.500965930313     5.483074257956
H     -0.674080929539    -0.485343615174     4.316917761665
Pd     1.079939695239     1.713215842413    -0.108560158346
C     -0.307283747690    -2.453887786982     2.230248274751
O     -0.503184262156    -3.032124104911     3.309655676199
O      0.932774741861    -2.355891281862     1.689270706833
C     -1.516366403100    -1.841542065899     1.445191942086
H     -2.353013783157    -1.876318167804     2.148272406561
C     -1.869412883847    -2.662712124787     0.220638951024
H     -2.784361998198    -2.251596427873    -0.252651017694
H     -1.039502217852    -2.609281088037    -0.513923660229
H     -2.049902936599    -3.720463295176     0.504362520996
N     -1.237557129630    -0.470485934557     1.004280071425
C     -2.028429054203     0.620275358492     0.930854447295
O     -1.637756443146     1.690713796994     0.383539393273
C     -3.366628205890     0.564824835995     1.550798194291
H     -3.945647819038    -0.238102980806     1.067322402459
H     -3.228175254941     0.384380195350     2.630459011856
H     -3.864856579181     1.539727779631     1.400208589765
N      1.197498879422     0.692067401466    -1.948960736861
C      1.244859950280     0.938959726263    -3.290288949623
C      1.475329599729    -0.107734336719    -4.165311541318
C      1.648092869992    -1.396940663168    -3.695634310849
C      1.586767714001    -1.618869160285    -2.341529906180
C      1.350102659311    -0.522376533124    -1.486333019605
H      1.109567614295     1.948665508404    -3.661179250849
H      1.514816376036     0.089210031784    -5.223983666951
H      1.827998650530    -2.217995498699    -4.384504365864
H      1.713300797734    -2.590510272243    -1.910864821887
O      1.277568158145    -0.709305669919    -0.191446767825
H      1.094912026771    -1.766628514960     0.866723021300

