# STO-3G

title

0 1
C      1.722233064436     2.807840585320    -0.294165274992
C      3.094523687673     2.950892198481     0.002555317335
C      3.768094818118     4.137954050414    -0.352939494425
C      3.079880282818     5.178057585959    -1.007806575096
C      1.711971272870     5.027492921019    -1.305081759088
C      1.028425333969     3.844751438462    -0.949613945645
H     -0.863281752692    -1.648045114732     1.248029287847
H      3.636557435851     2.155615002969     0.511002926527
H      4.824746556846     4.245369649589    -0.115544239690
H      3.601008983960     6.092746338261    -1.280778407866
H      1.171163548827     5.826454559298    -1.808734010065
H     -0.028210076781     3.744355928711    -1.187297637710
C     -0.734496011399     1.992137316865     1.427336137690
H     -0.891095832821     3.016806293100     1.105728736579
H     -1.541623628364     1.300205723267     1.211392373261
C      0.311158482930     1.628990921844     2.276454511683
H      0.312638558186     0.631563269984     2.696694871846
C      1.258002106518     2.581764377195     2.879616189576
O      2.278866865245     2.134459711808     3.464799343999
O      1.096632296502     3.959304928791     2.642823675361
C      2.145728098881     4.807671828321     3.128196977145
H      1.908235904792     5.863780235595     2.878566952653
H      2.245069440945     4.721432093923     4.233905363534
H      3.115731229273     4.549616082811     2.646333985524
Pd     0.839159155415     1.081236840897     0.114851654647
C     -2.654629936765    -0.685368089412    -0.788872296727
O     -2.794053610747     0.464963692177    -0.347255340892
O     -2.588336419109    -0.942006545271    -2.144199440357
C     -2.480044318170    -1.965238337888     0.047073498075
H     -1.743123904983    -2.568902270752    -0.489479533861
C     -3.751145092509    -2.783751128590     0.169133165034
H     -3.598500723671    -3.592632168033     0.913887629013
H     -4.603603113801    -2.149751612748     0.475161899754
H     -3.993451686809    -3.244854220570    -0.810644294543
N     -1.882578039000    -1.667168326005     1.344064994904
C     -2.301574852285    -1.040194354024     2.477336605931
O     -1.487567536922    -0.611519029151     3.334505435779
C     -3.747338633778    -0.855925325483     2.714191303315
H     -3.871541388314    -0.308570988490     3.665502454824
H     -4.156042539001    -0.256556118145     1.885686255002
H     -4.214061312724    -1.850480150751     2.797367274749
N      1.646773601032     0.078983204816    -1.493573002216
C      2.463781197683     0.291642858103    -2.564931221788
C      2.706377220070    -0.743071377989    -3.449051597101
C      2.140315771367    -1.989403123387    -3.253217671913
C      1.321261662767    -2.179215982248    -2.168539448294
C      1.093553619040    -1.102941066328    -1.283432860315
H      2.912758566594     1.266008751367    -2.720796153144
H      3.354174915061    -0.574407350803    -4.293326475636
H      2.340585203940    -2.803693328918    -3.944342467838
H      0.857858064624    -3.118816605293    -1.947449931865
O      0.320102884060    -1.265476345596    -0.255821492351
H     -2.565442803542    -0.093904023415    -2.640837155773

