# STO-3G

title

0 1
C      1.358938228140     2.907263956640    -0.611039441521
C      2.416421504684     2.716415506182     0.298486763076
C      3.490284928959     3.633882245860     0.295519003997
C      3.506684101134     4.720744934575    -0.599919952721
C      2.440205091531     4.897533811561    -1.503047881614
C      1.360105832733     3.989288553011    -1.514285883170
H     -0.580203678978    -0.832529674049     4.209686067538
H      2.413063044328     1.881562184909     0.995002751524
H      4.310487846586     3.490807646614     0.996374394130
H      4.338061907505     5.422234254370    -0.593564630879
H      2.442076014899     5.736338484346    -2.196701378782
H      0.542818036137     4.130827652720    -2.219112811364
C     -0.967193395503     2.105995664421     1.276391505559
H     -1.514095062350     1.209241107701     1.558151025042
H     -0.079070990495     2.338368360921     1.854857520192
C     -1.467871841362     3.031787368436     0.360818700363
H     -0.959045270500     3.973858694713     0.223124977859
C     -2.783778062436     2.934934815834    -0.295956928503
O     -3.098648504506     3.820030562704    -1.133329298076
O     -3.557356534429     1.776687617415    -0.130200234605
C     -4.757565312758     1.698615885177    -0.910494090628
H     -5.276277014957     0.741515682362    -0.685403392109
H     -5.447582285818     2.536429689554    -0.662480797570
H     -4.523243607332     1.716194938627    -1.998927613711
Pd    -0.095150016668     1.557811355880    -0.709487405557
C     -0.937736248361    -1.562650498187     1.491890299971
O     -1.859714192336    -0.760123763248     1.758352821381
O     -0.730268291943    -2.130445976571     0.294212053512
C      0.141626344265    -1.928236174137     2.540901992787
H      1.103500872114    -1.970093278941     2.023252580752
C     -0.120458202599    -3.254719619394     3.218576035049
H      0.691375612999    -3.463521602983     3.945617467437
H     -1.085221665832    -3.206768609037     3.764398926897
H     -0.157070434421    -4.069469048673     2.466445196984
N      0.198101293441    -0.887887764660     3.563648850423
C      0.988224436558     0.204458564080     3.399069004362
O      1.764194566316     0.394178135428     2.431789738795
C      0.894589782947     1.220735296211     4.467784444755
H      1.584663994947     2.050393248000     4.235286229298
H     -0.148965023400     1.575997989925     4.508374757663
H      1.176152713967     0.738454665834     5.420090766636
N      0.796778865251     0.492072491153    -2.232147026462
C      1.921487945839     0.558232188438    -3.003293395424
C      2.176246428106    -0.446279824799    -3.917970337786
C      1.309264592795    -1.513665336273    -4.056621326757
C      0.187260731186    -1.558254114568    -3.266303344135
C     -0.041716600957    -0.513827446118    -2.345571768509
H      2.606075078906     1.392166244248    -2.896982585952
H      3.064714545666    -0.392929037120    -4.525603798893
H      1.512563084106    -2.302734784177    -4.775779325720
H     -0.524684950648    -2.356255826689    -3.324234986815
O     -1.096561822661    -0.555030870277    -1.575279637438
H     -1.083520053632    -1.564172750949    -0.515773449863

