# STO-3G

title

0 1
C      1.221100036899     2.662589401933    -1.193584960471
C      2.481916387850     2.968758199903    -0.645304072224
C      3.139172765048     4.154389366463    -1.037524764066
C      2.542103081261     5.027045459812    -1.967838908933
C      1.282763922001     4.710306956511    -2.513009071176
C      0.619079414836     3.524708165319    -2.132364168822
H     -1.869536279189    -1.589970784324     2.785033212037
H      2.955209842617     2.301192021375     0.071118960064
H      4.111886349755     4.391653740084    -0.611545839101
H      3.051075436576     5.941683691053    -2.262684948663
H      0.814840481757     5.378298308577    -3.233309456454
H     -0.350165706933     3.286016436541    -2.565605987458
C      0.113284145374     1.538911415464     1.388105590037
H      0.743704895103     2.392993495592     1.605150375817
H      0.412942015555     0.612411100571     1.859621122443
C     -1.135427401946     1.678636217420     0.779306707639
H     -1.801928466972     0.824765245981     0.725257753322
C     -1.744967559301     2.971499703796     0.424987765474
O     -2.838686490513     2.970821612214    -0.196265230635
O     -1.042909829830     4.162683657753     0.672186482964
C     -1.653069246739     5.367336093130     0.189835140521
H     -1.003570907786     6.233005824398     0.443174244512
H     -1.768940740468     5.336081805540    -0.917103236700
H     -2.647694906477     5.526127869931     0.664743136938
Pd     0.332362869410     0.941932851799    -0.769689187050
C      0.525464500893    -1.932278313009     1.752020757073
O      1.602519623731    -1.514816502409     1.282467018414
O     -0.520353612432    -2.374638157114     1.004960691218
C      0.161582296382    -1.873195246138     3.249472736011
H      0.916122300056    -1.278775674087     3.769888415045
C      0.057250098137    -3.239156463447     3.890859010352
H     -0.182595351775    -3.120985486419     4.967817404163
H     -0.758643896956    -3.814393096017     3.406497843528
H      1.016562423430    -3.786441281581     3.787345648560
N     -1.138012499533    -1.203574756816     3.372340845896
C     -1.266253313338    -0.005282382044     4.006118752423
O     -0.318845408250     0.634371009257     4.520958093675
C     -2.628364605575     0.570258606062     4.062115615399
H     -2.600807737278     1.541475052040     3.541651247162
H     -3.356398341262    -0.106819961399     3.584335744391
H     -2.886256743704     0.714112006766     5.125276268281
N      0.997739844347    -0.065819934501    -2.449625035315
C      1.849453597316     0.085490492642    -3.505007542102
C      2.072389645401    -0.982552347818    -4.354422715248
C      1.445307130710    -2.197108437645    -4.144290408533
C      0.592116081592    -2.322886719330    -3.075332392653
C      0.389744168864    -1.210368638375    -2.232881827065
H      2.344526125714     1.035529199236    -3.671648959566
H      2.746339415457    -0.862868935755    -5.186746078336
H      1.623650828183    -3.035433522092    -4.812508976963
H      0.072979589881    -3.233604925474    -2.857514677667
O     -0.412769404398    -1.305107047505    -1.209011160232
H     -0.451208848939    -2.098513717286     0.001533617645

