# STO-3G

title

0 1
C      1.299541919117     2.731438153599    -1.345026537791
C      2.496836497826     3.469385040322    -1.264604878900
C      2.565120099140     4.753579043674    -1.846438557275
C      1.445266699163     5.300371747564    -2.501643496743
C      0.251279175001     4.557065934027    -2.577765887826
C      0.174666278233     3.271048581718    -2.003396696975
H     -2.141574339080    -1.761834255313     2.293280135055
H      3.370926222238     3.060782444901    -0.762623270616
H      3.491234459072     5.321073804283    -1.780959132576
H      1.501608252077     6.292059836122    -2.944211236639
H     -0.621143542163     4.972376897281    -3.078347201628
H     -0.755638546739     2.709077003523    -2.063838906910
C      1.634462234544     1.435419678295     1.488482123221
H      2.214892362012     2.350362267610     1.537062391417
H      2.122768013931     0.512883680191     1.793225267109
C      0.248208102926     1.463897278454     1.329121088699
H     -0.316658866501     0.549063159922     1.435873068215
C     -0.568276998213     2.687892315270     1.285540277411
O     -1.751515146508     2.593824656273     0.861620518662
O      0.062766960488     3.938139378059     1.412541917355
C     -0.767148814439     5.086125234716     1.192045175496
H     -0.161281186971     6.007427065758     1.327760943741
H     -1.169527756251     5.088397675789     0.153902005940
H     -1.609607905006     5.110354271439     1.919900082142
Pd     1.200378275639     0.880770571857    -0.645321647657
C      0.563456273209    -1.856081991307     2.406812744556
O      1.754229443916    -1.497277144911     2.474396642194
O     -0.020196046279    -2.392038510259     1.303558055543
C     -0.453146770285    -1.653235391654     3.551400061141
H     -0.051474094482    -0.893377616507     4.226375406505
C     -0.723012852541    -2.924563537619     4.325785757862
H     -1.430873895229    -2.707634270912     5.152326223317
H     -1.182079915727    -3.677053839290     3.652209981402
H      0.221487745795    -3.324523885124     4.748592719927
N     -1.720582102920    -1.172446884374     3.003500624440
C     -2.153442125119     0.105388498783     3.185777703698
O     -1.525253239117     0.995842253538     3.808898920505
C     -3.455575415394     0.421987741963     2.564486236021
H     -3.700166381504     1.477604864040     2.777420932765
H     -3.357754066521     0.269994318878     1.476817029817
H     -4.216013595781    -0.252584928895     2.993169420793
N      1.326133981759    -0.115788514052    -2.466403832528
C      1.463145117923     0.104095159359    -3.806068490316
C      1.460988369781    -0.972915903988    -4.673327511644
C      1.324668825063    -2.264976192254    -4.198767539729
C      1.191363963244    -2.460464197829    -2.845777007659
C      1.198534985588    -1.337415905159    -1.993616931655
H      1.569031125796     1.115340980236    -4.182364331783
H      1.567907699484    -0.798262011143    -5.731466873567
H      1.324965039378    -3.109279775292    -4.883161425312
H      1.088103924629    -3.434178641103    -2.412140480503
O      1.083036551229    -1.489943135953    -0.707726155860
H      0.492717019177    -2.206700328013     0.422475172621

