# STO-3G

title

0 1
C      1.977081917937     1.522404974114     0.991568324771
C      1.848454080708     0.483386302974     1.933606091234
C      2.790275230898     0.395281818140     2.980998499738
C      3.843585811488     1.325974724734     3.081417487513
C      3.957755468782     2.356407033381     2.129044313477
C      3.022810138166     2.460477640445     1.075719177314
H     -3.768827408275     0.390295651914     0.342339088394
H      1.032484731115    -0.231448298924     1.856940771729
H      2.693143433773    -0.401797607508     3.715754894454
H      4.565543128450     1.249268152098     3.891304205402
H      4.767245088659     3.080423008923     2.197549193078
H      3.121486455627     3.260226708512     0.344850968563
C     -0.311327063635     3.553953051846    -0.356767567636
H      0.434126217152     4.326003646842    -0.196701454622
H     -0.789387655468     3.536557977057    -1.334918291320
C     -0.842721053377     2.802684034538     0.690433230793
H     -1.708584759351     2.179827188079     0.514424533908
C     -0.496281326927     2.998457177923     2.109616576014
O     -1.060315210912     2.284066718076     2.978756630683
O      0.480043080721     3.948264354767     2.459222759029
C      0.899615612011     3.934255709749     3.830503957335
H      1.677391632191     4.712035760884     3.985632407858
H      0.044871219748     4.152958706583     4.510008130665
H      1.342421358103     2.946705028663     4.095368516450
Pd     0.726491463604     1.587763498464    -0.549733673362
C     -2.957968227477     1.389488277199    -1.823112678417
O     -3.893277164135     1.998663539938    -1.271253886601
O     -2.317466629989     1.855213260418    -2.915747266962
C     -2.460733648895     0.028613549506    -1.254929214526
H     -1.372006204056    -0.035219865676    -1.299317251914
C     -3.044829361292    -1.146624159400    -2.008419595557
H     -2.648582893882    -2.091608635578    -1.581710658525
H     -4.149180903247    -1.141667868598    -1.892980756081
H     -2.777854130256    -1.090977018135    -3.083628393836
N     -2.881788497324    -0.060791563031     0.137213525975
C     -2.056000790337    -0.505456307155     1.114851018316
O     -0.866035886170    -0.872230215006     0.936853065418
C     -2.639214310776    -0.537760123761     2.469492331063
H     -1.870241094504    -0.885093762254     3.180810797563
H     -2.958213586156     0.486962530422     2.726102970357
H     -3.504228605164    -1.222292945203     2.456161132294
N      1.682028492766     0.099982881032    -1.630521660926
C      2.652222405196    -0.847151268069    -1.476154985190
C      2.890500179804    -1.743875521909    -2.501590978829
C      2.154999845511    -1.694586465014    -3.671313189113
C      1.179195498129    -0.735481774596    -3.797741256769
C      0.966518405021     0.160311474447    -2.730225080244
H      3.230769553996    -0.889253976409    -0.560238380341
H      3.656933002934    -2.491627495790    -2.379136953755
H      2.344288588251    -2.402312171338    -4.474137754688
H      0.575698033495    -0.644412057400    -4.677334406779
O      0.033545324568     1.065914856200    -2.818407382719
H     -1.385361646910     1.441043292114    -3.056495463635

