# STO-3G

title

0 1
C      1.189669484518     3.052582942438    -0.884754635147
C      2.169282569797     3.312815662231     0.090246785168
C      3.106287103677     4.343690473913    -0.146307874037
C      3.062793626454     5.098395372911    -1.334025403300
C      2.072385751013     4.826073408879    -2.298392322104
C      1.129852393349     3.799337965100    -2.079060369528
H     -0.480769195162     0.756658172221     3.567032956584
H      2.209865520897     2.735315668371     1.009625187538
H      3.865017794309     4.551475433478     0.605680031743
H      3.786707923943     5.892077198023    -1.504897357062
H      2.025003490953     5.408939796423    -3.216366117349
H      0.366928384498     3.597997159377    -2.828900977983
C     -1.210135297455     2.238909364594     1.108057169604
H     -1.789193298680     1.354379770534     1.369927805541
H     -0.408571956922     2.523899203534     1.785010438550
C     -1.599383075477     3.085508006553     0.070888746700
H     -1.094681334884     4.030012051800    -0.060105504385
C     -2.806616968080     2.902692917445    -0.753233057057
O     -3.045943014050     3.746926722506    -1.655490735046
O     -3.487868405622     1.676867568102    -0.707782192433
C     -4.597291660005     1.534938422144    -1.604870142255
H     -5.055377818221     0.532298153202    -1.461392288536
H     -5.374357971164     2.305181071139    -1.398560781108
H     -4.263681503828     1.615374846001    -2.664084998912
Pd    -0.070848723823     1.529748701390    -0.669781230455
C     -1.476643247294    -1.331799850811     2.110054935941
O     -2.438572791518    -0.541085142743     1.978135488587
O     -0.946103376153    -2.083430901983     1.129083052399
C     -0.618089403632    -1.355376361393     3.402262317790
H      0.074253983911    -2.199415546286     3.363614087721
C     -1.435513905336    -1.440124693512     4.670643053804
H     -0.759725889119    -1.397186267744     5.549505849804
H     -2.137945678243    -0.581339271590     4.720017813891
H     -2.011748182380    -2.387462126467     4.692676194176
N      0.097276453334    -0.065830057776     3.400273140416
C      1.275587559016     0.253204977165     2.797743813973
O      1.620225439602     1.442856654099     2.582617052011
C      2.186237410735    -0.846196654105     2.416435770684
H      3.107797280345    -0.404110970524     1.996914021777
H      2.426901794813    -1.417681780388     3.328249041551
H      1.693403853136    -1.474371646497     1.655341537874
N      1.111174647793     0.214020909365    -1.737358400912
C      2.325275738971     0.199955068579    -2.361070284460
C      2.834186211507    -0.999089713499    -2.824209313857
C      2.126077206894    -2.176036839859    -2.669206816657
C      0.907260886164    -2.133842980054    -2.037349197743
C      0.419982675110    -0.891406221198    -1.579149824589
H      2.884172188447     1.120691232373    -2.485377254460
H      3.793123145830    -1.009101557225    -3.316331060532
H      2.526638673684    -3.116168862939    -3.039322802483
H      0.306931528159    -3.008771893734    -1.891350193612
O     -0.727909940123    -0.835045873416    -0.959912105551
H     -1.024151780499    -1.658908750192     0.159540696690

