# STO-3G

title

0 1
C     -1.213162112313    -1.610837207378     0.157549387870
C     -1.224017619258    -2.755340865352    -0.666538405170
C     -1.657090130709    -3.991862361940    -0.141829375557
C     -2.091411645798    -4.089073690891     1.194136976603
C     -2.080380293876    -2.943654672040     2.014667814524
C     -1.638663226530    -1.706517780955     1.501130336747
H      3.938619520769     0.149152788662     0.414604222804
H     -0.879203939068    -2.702135514138    -1.695408647273
H     -1.647565517828    -4.873457129554    -0.780192024914
H     -2.428245382226    -5.044267106361     1.591778183915
H     -2.408046794809    -3.010939893573     3.050757046967
H     -1.613065879339    -0.833660779135     2.150592221694
C      0.389046478866     2.419803333457    -1.234751004870
H      1.329523283645     2.475842091238    -0.696589687428
H      0.462016672408     2.158043058718    -2.283636305400
C     -0.824425459868     2.692632195685    -0.660798881092
H     -1.713854265210     2.634118205332    -1.269643846153
C     -1.032232392709     3.179733481872     0.713457764158
O     -0.046378066942     3.490657532221     1.433090837422
O     -2.347290568109     3.250706684070     1.203846165631
C     -2.487735581986     3.714685330503     2.554308099016
H     -3.564498500423     3.730341468972     2.829394230227
H     -1.957288401209     3.038401774405     3.262880045995
H     -2.087459916828     4.748680408317     2.661414849055
Pd    -0.602843405055     0.194110133954    -0.453182507968
C      2.015305286656    -1.359216153931    -1.628113040187
O      1.743711373459    -0.098933634650    -1.984549083067
O      1.719906821602    -2.388408208446    -2.270529709811
C      2.823748374675    -1.464681247469    -0.300512674537
H      3.832464322846    -1.774909572905    -0.606041655396
C      2.287918332331    -2.532219334388     0.632974617724
H      2.969074416833    -2.639703518416     1.502213465406
H      1.285644241457    -2.250465291124     1.006256887586
H      2.219359841667    -3.508330280219     0.109011022085
N      2.996809740696    -0.217910624344     0.466090210246
C      2.085793110863     0.509412818888     1.138356397593
O      0.827281197773     0.367238264622     1.116257693720
C      2.610616138995     1.553172154057     2.048211487748
H      2.291833715015     2.534928902283     1.662585278056
H      2.167668204753     1.380199999106     3.042755525807
H      3.711343431052     1.513361875897     2.120922704588
N     -1.855431139504     0.050424519788    -2.041568620459
C     -3.195268778842    -0.158706325910    -1.858402448290
C     -4.036021176059    -0.232548794780    -2.947159351245
C     -3.540978523403    -0.111203785353    -4.225927582241
C     -2.195237362886     0.081238037227    -4.390289397682
C     -1.344464603856     0.142609406689    -3.262025283122
H     -3.597142864275    -0.246243322406    -0.855457927027
H     -5.090366386780    -0.392897478613    -2.791962686400
H     -4.202388824995    -0.172633980591    -5.086089741843
H     -1.748768895626     0.166696601296    -5.360916959628
O     -0.091427012854     0.301005401013    -3.524483032600
H      0.932664292521     0.049628800421    -2.733453906633

