# STO-3G

title

0 1
C     -0.651939540442     2.436921775979    -1.257239330032
C     -1.523726459613     3.546821849485    -1.320943482527
C     -1.985275769655     4.015663363589    -2.568249774853
C     -1.594174634599     3.370844408323    -3.757965045226
C     -0.738147705219     2.254806522313    -3.693827298831
C     -0.261004963612     1.790795912993    -2.449486997746
H     -0.963007805088    -0.190597216325     0.253888833690
H     -1.857689263039     4.036598175486    -0.408605310774
H     -2.652470339000     4.874575306228    -2.606224850265
H     -1.955232724125     3.729406227638    -4.719324857751
H     -0.437699970118     1.743608880409    -4.606610745293
H      0.401497727259     0.930021631818    -2.422983214190
C      0.385288717238     0.699866191728     2.741688466453
H      1.127917703052    -0.062813641671     2.531356499733
H     -0.623701490935     0.333193101322     2.892282976481
C      0.693418682188     2.024974435057     2.914916450325
H     -0.084137490161     2.731250664995     3.172575317539
C      2.064164092495     2.560186730348     2.901495616352
O      2.222269993142     3.809248585516     2.890447548786
O      3.159500465176     1.683300510154     2.805719935289
C      4.456570428053     2.294115265149     2.775045838405
H      5.231844592038     1.502059999380     2.693695809302
H      4.557807641379     2.967562931344     1.894720789111
H      4.643783420562     2.871835792365     3.708332054350
Pd    -0.065507003506     1.893076299910     0.582199872165
C     -1.385759306163    -2.674906849244     1.509911449337
O     -0.079306636157    -2.340588625896     1.629382120049
O     -1.917858579365    -3.555975151993     2.202191969112
C     -2.244991531205    -1.859638910769     0.477383643252
H     -3.286788512537    -2.066666797606     0.736741047166
C     -2.015412593064    -2.303687252509    -0.951487198729
H     -2.682637700281    -1.730805935580    -1.628259823841
H     -0.963933508753    -2.104849720241    -1.246235241469
H     -2.230025758281    -3.387260334888    -1.056997856798
N     -1.927328123135    -0.428245111786     0.554703439593
C     -2.612711609135     0.593397243391     1.072145892898
O     -2.113693845298     1.768371444983     1.209938223575
C     -3.998261140964     0.378400034529     1.522282272367
H     -4.590145802954     0.034594926030     0.657022520913
H     -3.989412071558    -0.369615838787     2.332887579215
H     -4.406912742034     1.334310619646     1.898534717463
N      1.768639111376     1.397658641437    -0.126717003651
C      2.770356590499     2.253216823009    -0.488581443086
C      3.968268215303     1.749249897763    -0.950701007717
C      4.162937342379     0.388754255708    -1.058780785278
C      3.135560292896    -0.451595973040    -0.716282738036
C      1.911887205994     0.088026920608    -0.255780547133
H      2.627790244246     3.323344109245    -0.392235650452
H      4.756336597243     2.429496562702    -1.227830467778
H      5.107058427580    -0.009173373558    -1.420834749428
H      3.218376711822    -1.515922898378    -0.799467872461
O      0.959751743881    -0.745002353709    -0.001389522565
H      0.367036990239    -1.707936959690     0.950551621602

