# STO-3G

title

0 1
C      0.171204946805     3.850661012857    -0.183667166120
C      0.942184764761     3.663598075346    -1.350951223214
C      1.735017280668     4.729628096270    -1.825133233598
C      1.776560309475     5.954208589627    -1.129084352385
C      1.024219936083     6.118497120899     0.050019150225
C      0.228071040836     5.059807758434     0.537664927827
H     -3.990682749240    -1.708632368354     1.076855580480
H      0.933857202284     2.713622773714    -1.885096364862
H      2.321886129275     4.592334397520    -2.730767939319
H      2.395175454875     6.768844751622    -1.498178422707
H      1.057398459892     7.059627693310     0.594604222391
H     -0.336785245576     5.190365622820     1.458638084443
C     -0.547339743273     1.939783821061     2.315651390401
H     -0.312766113679     2.823575270650     2.901247813378
H     -1.446845772115     1.388537900084     2.573835499069
C      0.413649521048     1.311791643436     1.498572741031
H      0.212684120142     0.330366307605     1.086268288990
C      1.808906674202     1.778209120468     1.380667549793
O      2.583344440391     1.200008640344     0.576239540836
O      2.207526219458     2.935848438691     2.074627951696
C      3.489808633968     3.467922218652     1.714681382158
H      3.693784221724     4.378032655639     2.317856373934
H      4.297216202588     2.726984093697     1.912924835783
H      3.506250674964     3.756596276042     0.638512408175
Pd    -1.154790711482     2.460805658292     0.264805693838
C     -2.401549605604     0.220874761072    -0.490178309379
O     -1.847184748742     0.766950410750    -1.527787906815
O     -2.727050025600     0.947058338942     0.540505853550
C     -2.487292970720    -1.311890073660    -0.369880605965
H     -1.438245189755    -1.633373767091    -0.479629114217
C     -3.332377026687    -1.958956322244    -1.444267595891
H     -3.296288262251    -3.061334450269    -1.323256227294
H     -4.383439456194    -1.620792696436    -1.345333425682
H     -2.945635565538    -1.691815732087    -2.449473020868
N     -2.988187987970    -1.719481048758     0.936863892699
C     -2.187034369197    -1.710967435463     2.035181999149
O     -0.955971760326    -1.465424607416     2.031407287969
C     -2.859276834347    -2.031282974303     3.312758774141
H     -2.108952256443    -2.012214093317     4.122238029578
H     -3.638031127762    -1.270082482744     3.483803359796
H     -3.305613919824    -3.036498102553     3.220426526083
N      0.705109383287    -1.200522526168    -0.734878358075
C      1.464696369020    -2.125530913556    -0.069610609351
C      2.767205069103    -2.367061292546    -0.471122688849
C      3.315144917100    -1.666666881034    -1.526824879337
C      2.531823232127    -0.748749380536    -2.178042534395
C      1.212272969066    -0.541851913556    -1.722700749218
H      1.040920857147    -2.674561664981     0.762612977440
H      3.357786630994    -3.092559190112     0.061400353989
H      4.341894582573    -1.840357745145    -1.835876911381
H      2.891831965641    -0.162410845782    -2.997151768625
O      0.528106747236     0.384334430604    -2.412556215010
H     -0.438930696074     0.469232817293    -2.108334181124

