# STO-3G

title

0 1
C      0.961457268857     2.687682129713    -1.920567240744
C      2.355530250291     2.714512333491    -2.145202056773
C      2.850150266509     2.884629051237    -3.454508639425
C      1.956461852405     3.012263879090    -4.535559606684
C      0.568035416592     2.973429352806    -4.305581147625
C      0.063834258982     2.808593256056    -2.997760531331
H      0.724732451644    -1.083595074734     1.995871101055
H      3.052936129505     2.593779877282    -1.315314236072
H      3.924060554741     2.909795815792    -3.622985828512
H      2.338211778756     3.140562384990    -5.545235441231
H     -0.126309880890     3.076122126276    -5.136398885275
H     -1.012819521795     2.785077465284    -2.851290786655
C     -1.225243855521     1.415267130432    -0.281586266306
H     -1.205459797299     0.675825286310     0.515313967381
H     -1.127345834622     1.013735708437    -1.282986551883
C     -1.631265000186     2.749045591859    -0.061002511153
H     -1.815899039510     3.405715643128    -0.896638469785
C     -2.132367746258     3.231591872705     1.238351586246
O     -2.383574710629     4.457058340348     1.370495593555
O     -2.370691786338     2.310292953272     2.268214206545
C     -2.644305168190     2.864278947547     3.561486970007
H     -2.789337141351     2.035695080630     4.289815982327
H     -1.785202422627     3.477242715856     3.916044567901
H     -3.569166323253     3.483097611426     3.544285983411
Pd     0.597715359108     2.595346069899     0.027323871071
C      1.530937755085     1.483347142572     2.203132112150
O      2.262530330119     1.302062396317     1.114385051824
O      0.689066303090     2.470179063799     2.222535798877
C      1.460727321109     0.425919282268     3.316977317505
H      1.061619944646     0.895785376461     4.220615815453
C      2.777117123228    -0.256750129541     3.610518880397
H      2.637648556164    -0.968425382350     4.450246972293
H      3.107145302968    -0.829509032724     2.719291396574
H      3.547221087410     0.491714254563     3.886457800906
N      0.495319544098    -0.581793952020     2.861718748626
C     -0.726283475377    -0.700120071518     3.449427388401
O     -1.128339056297    -0.038275364463     4.435521943586
C     -1.601966061501    -1.727317695345     2.848430296446
H     -2.567687234281    -1.728304045412     3.381490516675
H     -1.738663533646    -1.477580185752     1.783193080077
H     -1.096147761800    -2.703293316033     2.945344539507
N     -0.345590620803    -1.836198272766    -0.694775432197
C     -1.107320752283    -2.028478164294    -1.815469773759
C     -0.706565324815    -1.486361335952    -3.025730073238
C      0.483779824410    -0.795230590028    -3.124081533610
C      1.240625880665    -0.643765661058    -1.990679786410
C      0.764169542032    -1.201280906568    -0.777337323096
H     -2.038674320874    -2.578076512327    -1.745033456403
H     -1.319050164279    -1.633987111734    -3.900031127898
H      0.816121538335    -0.386065824071    -4.074948926726
H      2.194108565065    -0.157590133425    -2.015093574729
O      1.553137825287    -1.043826866804     0.315296775143
H      2.026751271943    -0.158933226459     0.422939671833

