# STO-3G

title

0 1
C     -1.647020542162     2.248146697223    -1.646249202771
C     -0.829532980235     1.975947905623    -2.761480097554
C     -1.029924369569     2.708891296597    -3.950785339315
C     -2.019462642770     3.709574512867    -4.017994055998
C     -2.820184669106     3.982715837136    -2.892048624168
C     -2.628304317885     3.261462817542    -1.694564289015
H     -0.985185953791    -2.401648636284     3.597104625856
H     -0.074581426974     1.192988133121    -2.719898867889
H     -0.411885311317     2.491505282859    -4.819174537896
H     -2.163065408231     4.272294310195    -4.937348412279
H     -3.586052388615     4.753952786649    -2.936977472132
H     -3.243419905504     3.492939182413    -0.825233864656
C      0.350455338685     1.669165414353     0.629597634407
H      0.922216371828     2.066169699802    -0.206047877205
H      0.722917810806     0.747177031383     1.069473269663
C     -0.609480148886     2.445989700110     1.312276409609
H     -1.022564486142     2.052821579131     2.231772924848
C     -0.847324960862     3.877757424200     1.064272115981
O     -1.822475413944     4.430574299218     1.636110757822
O     -0.100092314524     4.545603397418     0.079253208204
C     -0.490477848957     5.896772134698    -0.200753949199
H      0.171005822995     6.312698595309    -0.991035382108
H     -1.538651204684     5.936052624186    -0.574404126117
H     -0.393999460090     6.534079300258     0.707284077528
Pd    -1.638612545689     1.029343496560    -0.091214979176
C     -1.047424629737    -1.415754548801     0.853171364673
O     -1.026017311428    -1.436326010088    -0.443197960797
O     -1.702743016800    -0.484562345795     1.489002040484
C     -0.140885838994    -2.363348209192     1.658280912689
H      0.867827412395    -2.156899980054     1.263333763466
C     -0.469415642569    -3.826556291261     1.460653774085
H      0.257917042157    -4.444339988368     2.026809718254
H     -1.489627647021    -4.034170511819     1.841593821854
H     -0.410186387155    -4.091457994195     0.384724677506
N     -0.182035544615    -2.059841937460     3.085058162333
C      0.527852904774    -1.018057831787     3.595744914947
O      1.327441899544    -0.307752456263     2.936173542146
C      0.352678654163    -0.728129198756     5.037062078062
H     -0.058569331365     0.290911137020     5.121928939156
H     -0.328782500598    -1.460467831075     5.501395814293
H      1.346486639396    -0.783163499573     5.513044411088
N      2.270593403239    -0.973981312732     0.001010947838
C      3.432520636184    -0.728191932935     0.681902571275
C      4.442345741523     0.000567506040     0.076512808272
C      4.285537431432     0.483990931650    -1.206479909715
C      3.105818055231     0.228868544298    -1.858599941786
C      2.111942947520    -0.519937515108    -1.192177626374
H      3.561559633344    -1.111118885050     1.687452510664
H      5.353555235015     0.189141611610     0.619160961257
H      5.074881751192     1.056846413610    -1.685550907410
H      2.911492544866     0.577324947411    -2.852378601434
O      0.977192860274    -0.673052190874    -1.896358471619
H      0.238785280170    -1.116941242924    -1.362719931971

