# STO-3G

title

0 1
C     -0.072902459644     2.778105095474    -2.200570733848
C      1.085564616168     3.566496328532    -2.309603160425
C      1.435343801337     4.115477009666    -3.561941889353
C      0.632344432626     3.881185824129    -4.693694454146
C     -0.521829459550     3.082269978598    -4.578915900275
C     -0.870563055184     2.521470717318    -3.334397639617
H     -2.277964276243    -1.700897296416     2.745607396839
H      1.732498042829     3.758863014290    -1.457747082385
H      2.333802506139     4.723111870433    -3.645917000348
H      0.907403346665     4.306646003347    -5.655648009199
H     -1.138953659535     2.879656841386    -5.451027388918
H     -1.741258689146     1.867634723131    -3.266848979844
C      0.850664590377     2.084089283187     0.704336408476
H      0.754744088636     1.250228614927     1.398325208311
H      1.696792995055     2.027198305967     0.024551532084
C      0.100559806620     3.277076310911     0.823278591928
H      0.360418355238     4.130075861521     0.215560429301
C     -0.806781703973     3.585685020672     1.944357435327
O     -1.471864171935     4.652688234684     1.892014919287
O     -0.895591226861     2.720189225211     3.047340649897
C     -1.827111678669     3.102998130852     4.068797439056
H     -1.794769245448     2.361756969028     4.894747982015
H     -1.566294682287     4.099944148148     4.491166439221
H     -2.864756158243     3.129224245166     3.665245208447
Pd    -0.887954552815     1.907656022609    -0.616608989474
C     -1.625204448875    -0.443787471955     0.170298798120
O     -1.456568628870    -0.348674821060    -1.124616421850
O     -1.949625730539     0.613049083425     0.854084197907
C     -1.219212488993    -1.730594590012     0.906375057555
H     -0.153967672215    -1.852872017103     0.641888590926
C     -1.993089004966    -2.953434437573     0.467080352720
H     -1.605308021474    -3.843486403293     1.004310580503
H     -3.065865636328    -2.823923820645     0.714869931220
H     -1.876884432263    -3.109860597942    -0.625240125862
N     -1.355125715075    -1.575641538870     2.349108543016
C     -0.435774102813    -0.885705149736     3.074739831226
O      0.655133330332    -0.450199542089     2.631387117067
C     -0.777012853742    -0.678121121213     4.497618844596
H      0.033536984252    -0.099046422188     4.973006495380
H     -1.725519060747    -0.118888598699     4.531214155098
H     -0.885319648386    -1.668637168784     4.971414312387
N      1.718389885139    -1.099325091613    -0.292818666109
C      2.774038106332    -1.157450468823     0.577458398582
C      3.993882196480    -0.609532535988     0.216074310304
C      4.157701799154    -0.013120118217    -1.017216092027
C      3.079855048473     0.035324593139    -1.863471526103
C      1.860231617272    -0.537403258060    -1.442595356987
H      2.657813011873    -1.642282165840     1.539337521689
H      4.818980033318    -0.662933118558     0.906725488635
H      5.114722400030     0.411484519060    -1.307973893536
H      3.127209128221     0.486185588003    -2.835047155746
O      0.862941128319    -0.406575862248    -2.331903150085
H     -0.036754112744    -0.605631951916    -1.930802217650

