# STO-3G

title

0 1
C     -1.001560430283     3.507663707999    -0.162067906668
C     -0.356044186410     3.710915194395    -1.398147041656
C     -0.285954903738     5.018245607102    -1.925280053217
C     -0.837207814730     6.106282127156    -1.220125357184
C     -1.467054979240     5.892329774780     0.021220861853
C     -1.540300195761     4.591791291008     0.563446019428
H     -2.052631347849    -3.277575481454     1.475158290721
H      0.054338791660     2.871655769912    -1.956464205741
H      0.196978171770     5.177796648270    -2.886878894411
H     -0.774538990436     7.110420037257    -1.632748222336
H     -1.895096943794     6.727701756910     0.571024028953
H     -2.017031950113     4.441150005067     1.531807898948
C      0.654106993735     1.148541680566     0.930718959755
H      1.325883714312     1.764064184503     0.337054998296
H      0.658074588714     0.084308010581     0.708486304964
C      0.060495542555     1.625050665348     2.118926135672
H     -0.461160770716     0.915556759249     2.747633176105
C      0.371712832352     2.923351731964     2.739857280908
O     -0.321878157424     3.299612283729     3.720084115484
O      1.301965631864     3.780533985563     2.127901349235
C      1.437453227201     5.083794988293     2.710730301401
H      2.196420351851     5.662482461475     2.141375236170
H      0.474300370883     5.640431907966     2.662679406189
H      1.774327372697     5.012029074675     3.769651325234
Pd    -1.435911551510     1.680182707652     0.449242558454
C     -1.818165149958    -0.891065205879    -0.220925643810
O     -1.825413742982    -0.156923360431    -1.290145517730
O     -2.064765531877    -0.363023799969     0.945667289762
C     -1.318825827804    -2.345820586911    -0.285351101069
H     -0.317598074610    -2.257594162966    -0.739891051459
C     -2.183404183523    -3.244353182336    -1.141306557115
H     -1.729979505067    -4.256228613260    -1.183065203394
H     -3.195216718752    -3.322750234303    -0.695017748731
H     -2.258385720749    -2.837678647095    -2.170997206245
N     -1.204361586770    -2.929554654369     1.045945045991
C     -0.148916227189    -2.647714181790     1.853489318517
O      0.859498703304    -1.978070270463     1.518266921135
C     -0.228509592908    -3.203394589702     3.221163915117
H      0.687983313811    -2.926204540029     3.770500247881
H     -1.118981222134    -2.772212061606     3.707791745221
H     -0.317110202525    -4.300477908377     3.139878658147
N      1.408041751702    -1.065683335945    -1.455631678595
C      2.586316594436    -1.624462562006    -1.038922534727
C      3.787552395398    -1.018742507049    -1.366755035037
C      3.806462478998     0.145380837130    -2.107479477954
C      2.608637460584     0.685503493696    -2.501806233711
C      1.415359503187     0.024419953946    -2.138797930987
H      2.575785148784    -2.541966975571    -0.462299204638
H      4.710064160327    -1.465186732542    -1.035095914158
H      4.746548719564     0.624637394693    -2.366865630279
H      2.546140549616     1.589200191212    -3.072965739284
O      0.297093817279     0.659550504184    -2.530015664122
H     -0.546978612964     0.233666214462    -2.165314253830

