# STO-3G

title

0 1
C      1.465882791287     2.919146207327    -0.400554586772
C      1.924622609999     4.253535288894    -0.389495445653
C      2.310997584863     4.862090620017    -1.602394545707
C      2.212928184546     4.152128141605    -2.814675256733
C      1.738450446566     2.826074913519    -2.815466112931
C      1.355527380779     2.204829248284    -1.608328858421
H      0.681254587347    -3.323093827155     2.064655135521
H      1.994124960220     4.819164760134     0.539007972691
H      2.680021078628     5.885180677634    -1.593618071790
H      2.503928802949     4.626788362730    -3.748387705898
H      1.670946995446     2.266394039496    -3.744905028129
H      1.015220783764     1.173305724063    -1.623753619070
C     -0.909123233827     1.816975405623     1.241989548238
H     -1.231649412180     1.854565230264     0.204272716541
H     -1.051609153503     0.868981351316     1.759275232548
C     -0.616547049124     2.999830351670     1.955678530050
H     -0.456080782153     2.929874864280     3.023463049450
C     -0.839568673633     4.357906929393     1.431450507842
O     -0.414339546874     5.335205743666     2.099672679037
O     -1.363137280201     4.524568352998     0.138078515036
C     -1.412099524086     5.871029679619    -0.353547978889
H     -1.841580598180     5.871998886859    -1.378628132185
H     -2.055231904712     6.507824277142     0.295319446040
H     -0.389902541381     6.309172173998    -0.409620444301
Pd     1.286323641975     1.981814361823     1.328366691562
C      1.352330573445    -0.376988689548     2.612784501647
O      1.647475176143    -0.457521213696     1.348642795273
O      1.309284187320     0.778838638156     3.197013083530
C      0.963478428189    -1.648043743551     3.393275703044
H      0.332428156515    -1.321584003938     4.226328154772
C      2.167992237873    -2.382406151316     3.940230082539
H      1.828806507386    -3.268012722114     4.516827458804
H      2.805857714963    -2.727713467934     3.099908867803
H      2.755481708271    -1.717514032430     4.606393656270
N      0.207676327785    -2.564945244189     2.541344498919
C     -1.023016380062    -2.198420617598     2.100920630617
O     -1.555250905701    -1.085122371731     2.347528520553
C     -1.756020300434    -3.206708726500     1.311666960206
H     -2.735006928380    -2.791820402736     1.017154411563
H     -1.151908733295    -3.450889925473     0.420782295240
H     -1.886155368228    -4.103216277446     1.941852995254
N      0.522863256025    -1.503893330908    -2.767234362946
C     -0.184575118449    -0.944406492155    -3.797148150009
C     -1.327822194284    -0.210795010494    -3.533786010278
C     -1.782388745927    -0.066329049485    -2.241091335555
C     -1.061144480474    -0.648241665326    -1.230377105113
C      0.118750108628    -1.369667742812    -1.557721794406
H      0.163231874871    -1.065371116490    -4.816337979700
H     -1.873796397859     0.229880140634    -4.351374036372
H     -2.695467317233     0.484176707215    -2.030073127881
H     -1.394931101854    -0.622618535232    -0.216564911958
O      0.758506690081    -1.966854969466    -0.520049316383
H      1.059718570883    -1.362804200140     0.236531531436

