# STO-3G

title

0 1
C     -2.922003737076    -1.684097152711    -1.336353474713
C     -2.939880375106    -2.986539150336    -1.872561816985
C     -3.037028412126    -3.174095186056    -3.266073952236
C     -3.118410919574    -2.058620035944    -4.123471824663
C     -3.107932180735    -0.755009134863    -3.586768529192
C     -3.012975111336    -0.568670002505    -2.193769984228
H      0.288237583142    -1.602022021242     2.546140744614
H     -2.872948712055    -3.843821306657    -1.206960475271
H     -3.049004750090    -4.180131725723    -3.678767350937
H     -3.191326595788    -2.203473958136    -5.198849636021
H     -3.173808060235     0.105860175539    -4.247783040213
H     -3.005435092928     0.437221131366    -1.779632318234
C      0.279718969281    -0.835822894388    -0.361973258236
H     -0.746413876680    -1.162052956303    -0.494316016462
H      0.889436028443    -1.623894058687     0.079677108080
C      0.870000128426    -0.219498357560    -1.621246214317
H      0.899560475358    -0.949857204414    -2.429492339075
C      0.241939696361     1.035835857012    -2.111369777163
O     -0.391082600521     1.761731295105    -1.286716845490
O      0.103082537667     1.236503586557    -3.498296578691
C     -0.556681036193     2.445786266254    -3.895321911371
H     -0.584859667817     2.499339986860    -5.004915291109
H     -1.603647295107     2.467793219874    -3.518503237184
H     -0.005051366539     3.336857686988    -3.519008115329
Pd     0.236820455422     0.660483590082     1.000789361695
C      1.856652406569    -0.365756087477     3.145481726704
O      1.355005969964    -1.448913817364     2.509593680113
O      1.604231652395    -0.023036542292     4.316016458253
C      2.862001289981     0.438500127939     2.232735872554
H      3.829704623439    -0.080958299360     2.308237164993
C      3.039200524898     1.869966918752     2.687082178071
H      3.743955326724     2.394316569636     2.009995712078
H      2.061961419485     2.392983613503     2.663537250366
H      3.441793898613     1.895857395662     3.721341101610
N      2.317904284535     0.481835482689     0.857071608294
C      2.937848237599     0.173722217978    -0.229778910959
O      2.354656431355     0.020282265240    -1.435873480664
C      4.399013913036    -0.033328606688    -0.264204426607
H      4.713967716087    -0.180095251507    -1.313552097400
H      4.885384296093     0.865365656437     0.147380559215
H      4.639564784393    -0.940144470171     0.315652631838
N     -1.718514846884     0.342014493792     1.453421544282
C     -2.715741091347     1.202532329549     1.091132124114
C     -4.033307629920     0.850871329807     1.296698834528
C     -4.359948825034    -0.331931415281     1.922006358279
C     -3.347461888461    -1.186232670025     2.270232097781
C     -1.996414954429    -0.822354306014     2.041945586212
H     -2.469455085119     2.147326081287     0.620057815971
H     -4.813018413277     1.538763877000     1.010066840983
H     -5.397344820178    -0.587536188887     2.123184663919
H     -3.530178785316    -2.112899890544     2.780783682158
O     -1.117348062967    -1.684404032321     2.410707704590
H     -2.836802319443    -1.541514533995    -0.260352323905

