# STO-3G

title

0 1
C      1.404710999800     2.805067875484    -1.429317326318
C      2.598207767377     3.555366603999    -1.373257761931
C      2.661339262984     4.806492321300    -2.023361434087
C      1.552519302514     5.281698254743    -2.750083193325
C      0.375087382456     4.510523458973    -2.824576027120
C      0.297830201842     3.261392885636    -2.173976857068
H      0.503805564524    -1.056948874802     0.544212651651
H      3.467270552347     3.184728505459    -0.828789371504
H      3.575292934016     5.393810345122    -1.969290635554
H      1.607189099503     6.241229882652    -3.258831401821
H     -0.484584664574     4.878788310818    -3.380492396872
H     -0.617513822294     2.676553390146    -2.221729768460
C     -1.999241221971     0.739467497767     0.748535331705
H     -1.065441605064     0.325620057500     1.115352948707
H     -2.771680021733     0.007955793100     0.537503569027
C     -2.188866178157     2.071328831997     0.615038725908
H     -3.137571919809     2.456229247223     0.270330066072
C     -1.169111469044     3.087691985526     0.917499046435
O      0.015854717793     2.728259355960     1.170350804501
O     -1.501477391198     4.444029718307     0.759011546765
C     -0.427091095126     5.378178695471     0.937980911348
H     -0.809211186808     6.411145610590     0.791940393101
H     -0.003908807532     5.304515724606     1.965315115305
H      0.380439644433     5.201746479125     0.191439982475
Pd     1.346713585753     1.257242648867    -0.210081859119
C      1.478644803428    -0.502106453257     2.574854046421
O      1.199545644389    -0.320076681521     1.267337382431
O      2.244362973156     0.220758814872     3.235153299126
C      0.739612734980    -1.736734377858     3.186483320679
H      0.781618414024    -1.609812991700     4.272301944844
C      1.446856351468    -3.032070600144     2.846470774127
H      0.910051546107    -3.885720277616     3.310022229566
H      1.463188887455    -3.172542011428     1.743984309006
H      2.490026945930    -3.010167553801     3.225123316503
N     -0.639981503595    -1.845622103658     2.706998041023
C     -1.799430778791    -1.410620306943     3.281907209742
O     -2.906080446030    -1.460306717273     2.697361932887
C     -1.727924144158    -0.859456021552     4.652265485746
H     -2.744227046832    -0.544303813652     4.951564417748
H     -1.371463899387    -1.653547619850     5.328685229730
H     -1.055056571897     0.016349809202     4.648615981074
N      0.898526408471    -0.097872994820    -1.771639134356
C      1.206339208906     0.199388019005    -3.075099078238
C      0.760968837635    -0.609701621944    -4.099954087786
C      0.014231900448    -1.732857403496    -3.831223123216
C     -0.249550384067    -2.038323394085    -2.525094444936
C      0.231325031405    -1.198528818991    -1.493674897324
H      1.807847652494     1.066004251580    -3.315603021191
H      1.002940597491    -0.355776715287    -5.118636824125
H     -0.341446920771    -2.371538881913    -4.635183086836
H     -0.801719991955    -2.911739426265    -2.243877852052
O     -0.034842843081    -1.619239323737    -0.288358188804
H     -0.780128892720    -2.152408379024     1.745120730315

