# STO-3G

title

0 1
C      0.058006378621     2.599360225882     0.062775361175
C      0.493185753117     3.717254647599     0.810542432645
C      0.468944320555     5.010888975455     0.257076414726
C     -0.002550281208     5.212879332714    -1.054832924694
C     -0.461317547417     4.112010858569    -1.803265614668
C     -0.435924634406     2.819442664043    -1.245747403637
H     -3.512666480650     0.156412960341     0.010562607018
H      0.831992088718     3.582584548751     1.836399854839
H      0.804285576579     5.858555139874     0.850845912828
H     -0.026094682646     6.213655377464    -1.480337294411
H     -0.846140808408     4.260424845670    -2.810181525859
H     -0.803613593564     1.972542404544    -1.823878960031
C      0.076356474148     1.193325044722     0.630384440273
H     -0.232529877170     1.193686913914     1.682653202864
H     -0.671284247131     0.602757768849     0.093041104778
C      1.384957217513     0.358384581808     0.533760918733
H      1.076536145484    -0.655217801331     0.772397545077
C      2.536997140377     0.623975432637     1.450021951524
O      3.459944519275    -0.251093846953     1.503094436535
O      2.584576808886     1.779657131285     2.249578290581
C      3.720956837752     1.909125215853     3.112949320048
H      3.634999915838     2.857258423516     3.686717955598
H      3.762026421505     1.067846308342     3.840838868596
H      4.663797052197     1.945492319102     2.522876105530
Pd     3.740270755903    -1.955869978678    -0.114589473717
C     -1.704255546852    -1.716883179224     0.087140860952
O     -0.592660392661    -2.298971244605     0.572440509586
O     -1.872570905734    -1.364182533930    -1.103090637190
C     -2.743359122541    -1.406755706695     1.185369193693
H     -2.265816852274    -1.459880960131     2.165434695396
C     -3.931882329671    -2.341059399789     1.142886278895
H     -4.638500714891    -2.071815180354     1.954797452564
H     -4.450598060249    -2.229926792631     0.168075871981
H     -3.600270896714    -3.390878617019     1.276426182966
N     -3.223242622174    -0.041332000313     0.962688343076
C     -2.965353686308     0.955952766441     1.852318233182
O     -2.343815256404     0.806565189373     2.932234835777
C     -3.433797908820     2.310002479043     1.483331351912
H     -4.076641985030     2.674414780741     2.300390272353
H     -2.539462391249     2.948360990093     1.379981259450
H     -3.993619921342     2.288039461198     0.532412348721
N      1.893073860748     0.205621822726    -0.896449400921
C      2.430112218769     1.240962743351    -1.639655133580
C      3.162249433544     0.974962069101    -2.779845842113
C      3.306176798505    -0.304290876413    -3.256078877729
C      2.787642677238    -1.344226809607    -2.531822109688
C      2.096834743060    -1.093321579532    -1.324669619866
H      2.319871039867     2.267159109915    -1.311347104357
H      3.562138643038     1.804600464062    -3.339938928327
H      3.812868805482    -0.485277910735    -4.200733025059
H      2.787237961898    -2.344707771687    -2.919755326112
O      1.495956106618    -2.119107766138    -0.790627921936
H      0.224815583963    -2.316630791198    -0.063863212748

