# STO-3G

title

0 1
C     -0.421680507719     4.114897352925    -0.527677101500
C     -0.612945642621     5.302423295503     0.208884120019
C     -0.649434932866     6.550630662837    -0.442155731478
C     -0.500719799110     6.623284085025    -1.839852041240
C     -0.319089963450     5.439312856576    -2.582395667320
C     -0.282011427853     4.194529675235    -1.930290281189
H     -2.386663051032    -2.179629764505     2.447809396374
H     -0.734056876346     5.252789064268     1.289452566429
H     -0.797627827034     7.458795527408     0.137807446964
H     -0.533493400729     7.586029478995    -2.344429375769
H     -0.215121816181     5.485903005293    -3.663930595345
H     -0.155265963403     3.280861829917    -2.510053901327
C     -0.345276749274     2.784416231965     0.191728418379
H     -0.718284593071     2.819333670355     1.218117614920
H     -1.218424064193     2.129378299082    -0.270013598515
C      0.964410546872     2.035313603202     0.049059153741
H      1.654820013936     2.411998017072    -0.689209931733
C      1.645850790731     1.436510328794     1.210344629811
O      0.968114254873     0.754915892021     2.024043793334
O      3.036684375699     1.580910055268     1.352721944099
C      3.635539421499     0.845244442053     2.428076017373
H      4.729625451039     1.038272596363     2.440412191643
H      3.214834023896     1.162990083582     3.408976871474
H      3.478114885704    -0.248908236507     2.290995088832
Pd    -0.287349859988     0.676016964302    -0.832723020405
C     -2.081250271798    -1.550454929232    -0.501567456401
O     -1.026852358888    -2.347228928055    -0.311013484267
O     -2.116868897008    -0.618303714917    -1.359121062043
C     -3.194126360844    -1.799353056051     0.542997379028
H     -3.385197686200    -2.877299023422     0.582342677205
C     -4.491122848228    -1.074792419203     0.254868250928
H     -5.215160483186    -1.276841803004     1.070903088761
H     -4.317349395952     0.018834339928     0.195520079461
H     -4.917263764124    -1.426154023048    -0.706961179654
N     -2.683721331005    -1.405038364789     1.867610584859
C     -2.256989283948    -0.156723038991     2.215479254684
O     -2.346922119979     0.873311786284     1.504462617683
C     -1.674945043665    -0.051403140947     3.570263473762
H     -0.783286540190    -0.700363142757     3.606007606302
H     -1.381665734784     0.997692175409     3.747231610483
H     -2.434471969561    -0.376766515183     4.301357924206
N      2.896384039166    -0.061421070377    -1.186711232047
C      4.259162469418    -0.183161166323    -1.230489928431
C      4.841075777366    -1.437924173728    -1.265477117891
C      4.057239773311    -2.572899860337    -1.264303554810
C      2.694750858261    -2.422961140820    -1.221285574743
C      2.155040863187    -1.114388428629    -1.181292214498
H      4.878530783314     0.706178323011    -1.231042643576
H      5.914597012256    -1.522639469275    -1.299021941871
H      4.508586452894    -3.561014142146    -1.295828847604
H      2.031834910603    -3.263887547217    -1.218313907407
O      0.824519015568    -1.052078654786    -1.129426446021
H     -0.091825032148    -1.927215230387    -0.734366738781

