# STO-3G

title

0 1
C     -0.480400825414     4.102011208993    -0.528014351603
C      0.496439887022     5.096838640080    -0.297550843084
C      0.383400469444     6.365006923940    -0.896200935619
C     -0.708706367275     6.657915214812    -1.735812636664
C     -1.685910673420     5.672038152014    -1.971169468235
C     -1.571565584524     4.405161779430    -1.369692104761
H     -2.354617076151    -2.230791812159     2.330932072664
H      1.343688523404     4.882560313278     0.350478309540
H      1.143725388015     7.120145165826    -0.709491169371
H     -0.795192404866     7.637024518913    -2.201038223480
H     -2.530789537017     5.886126115022    -2.621611010771
H     -2.328733028820     3.646604486921    -1.562352424150
C     -0.366167365940     2.756768756718     0.161608882003
H     -0.764106809337     2.762678256055     1.182335454672
H     -1.209747625861     2.086882195619    -0.316855907852
C      0.964603309278     2.043408226433     0.046915953409
H      1.659591820002     2.434509183778    -0.680756922712
C      1.636599161102     1.462259745555     1.222320098394
O      0.962847150819     0.753733740038     2.016111251726
O      3.007682872838     1.695324166968     1.426215499811
C      3.604486631713     0.991146268288     2.523632996871
H      4.682775334732     1.251852330616     2.584791036677
H      3.122630461228     1.275158024487     3.486654293706
H      3.521607578504    -0.109798233105     2.375538165263
Pd    -0.226618167328     0.652228764862    -0.869593886068
C     -1.989291397058    -1.609503238773    -0.607002172460
O     -0.926898786643    -2.388716040228    -0.392714943108
O     -2.016754998567    -0.669665718611    -1.456791492942
C     -3.125708997304    -1.884377919373     0.405232133585
H     -3.287138475891    -2.966989936320     0.446238451173
C     -4.433765990941    -1.198650323801     0.075236171367
H     -5.174833776787    -1.416220811536     0.871775263554
H     -4.289543556146    -0.101019961476     0.013115940775
H     -4.822016601947    -1.568154459025    -0.895775818273
N     -2.663882138950    -1.468114104619     1.741225631884
C     -2.290118267963    -0.205095491612     2.097231727703
O     -2.397914295691     0.820741718849     1.382784795042
C     -1.745039778780    -0.078046669356     3.465422856073
H     -0.832646692161    -0.695822187140     3.524633697449
H     -1.492924504713     0.980837022609     3.647910007215
H     -2.510424665587    -0.428645340902     4.178545569589
N      2.989893177183    -0.037790820955    -1.067826696446
C      4.354649100354    -0.143854749804    -1.055759470543
C      4.952293141970    -1.391073312670    -1.092184862050
C      4.182549484569    -2.534185845820    -1.150331517388
C      2.817863570802    -2.399856752985    -1.164745165946
C      2.261531738811    -1.098348084001    -1.120125559543
H      4.962928180063     0.751901694204    -1.009397250733
H      6.027169476195    -1.463567613884    -1.080837555754
H      4.646382863512    -3.516435787897    -1.183868831385
H      2.165515100272    -3.247737685392    -1.211244349826
O      0.929076339889    -1.052189346351    -1.130283833329
H      0.015133647739    -1.945331240782    -0.779719355651

