# STO-3G

title

0 1
C     -0.794648321761    -2.057856111942    -1.078577195113
C     -1.959908886863    -1.768160941189    -1.814621208778
C     -2.347187960081    -2.599291672938    -2.884289623626
C     -1.566057547408    -3.724755319650    -3.214745627231
C     -0.404336401017    -4.020383764212    -2.472297024059
C     -0.017640499459    -3.187878044810    -1.403407072246
H     -0.488891454897    -1.407441560493    -0.259174532224
H     -2.567420328171    -0.906507666458    -1.538603102411
H     -3.250440868473    -2.376553990207    -3.447563105404
H     -1.863796216615    -4.369569491384    -4.038499359646
H      0.192215286839    -4.894675312966    -2.722269055070
H      0.874734463610    -3.409141428487    -0.822554600596
C     -0.226627102249    -1.589253106494     2.559546419660
H     -0.677250078446    -2.245662521048     1.818575187971
H      0.609974723537    -2.001391780294     3.115052088047
C     -0.793952006435    -0.370944393827     2.883290303227
H     -0.414270120716     0.188752241581     3.726798291483
C     -2.069519327574     0.114127017425     2.327713451143
O     -2.418482811557    -0.259820275511     1.176358934497
O     -2.835751728839     1.018114480767     3.075904038745
C     -4.025057482085     1.511878606978     2.443972968862
H     -4.522745906420     2.241568413042     3.119329218156
H     -3.779297886473     2.046552451478     1.499488421423
H     -4.736427104474     0.683335438673     2.230451647465
Pd     1.096570451905    -0.175324986226     1.257708269432
C     -1.756603320471     4.048017448255     2.585219044204
O     -0.757504255003     3.449389220003     2.876303635457
O     -2.748050611608     4.666220936041     2.374681967296
C      2.999987720197    -0.412725734162     0.329994274123
H      3.762367721105     0.289439900235     0.681807939791
C      2.889035057692    -0.596384312663    -1.148551576674
H      3.748201447076    -1.202574104379    -1.501067939575
H      1.954844970069    -1.134012028348    -1.400461275907
H      2.905258883469     0.390391045156    -1.653737608331
N      2.644424564329    -1.531069282741     1.036875878675
C      3.212566694836    -2.226552606793     2.055827760349
O      2.620384180113    -2.656593539862     3.078178748918
C      4.628994337023    -2.595283320301     1.839262021524
H      4.691042001576    -3.159539721344     0.892824705800
H      5.230015311475    -1.673676425323     1.791630040487
H      4.966578584412    -3.228323849190     2.680897740546
N     -1.576481080446     2.968528551964     0.122121611459
C     -2.475226170096     3.233421122211    -0.874247913389
C     -2.338435907000     2.613191247756    -2.105677185945
C     -1.296098438336     1.738117907862    -2.337359620176
C     -0.401532940400     1.503551739945    -1.321353470342
C     -0.607899002196     2.158614484199    -0.090138426096
H     -3.294051494428     3.920107219102    -0.692714693335
H     -3.055493910675     2.820078378111    -2.882788610071
H     -1.186143173981     1.248088988720    -3.301367383080
H      0.426953204411     0.849235504571    -1.451367643395
O      0.305046837653     1.879316114702     0.877952591451
H      0.123920163189     2.392917240201     1.700920732713

