# STO-3G

title

0 1
C      1.703344991884    -1.001748563288    -1.007540121497
C      2.205603399671    -0.924138435228     0.328205398164
C      2.131018596611    -2.045773841750     1.184073506542
C      1.580166133023    -3.246888594734     0.706555397872
C      1.099681893500    -3.341067305517    -0.620579833191
C      1.161212481602    -2.233166062876    -1.476560043913
H      1.914724391785    -0.194517685722    -1.705245905633
H      2.713213982834    -0.018049183168     0.646359677483
H      2.512689714953    -1.979828277919     2.199579394410
H      1.527353887784    -4.115065634022     1.360178737036
H      0.676063308446    -4.275223189233    -0.979376949601
H      0.792391881318    -2.301725819280    -2.491746510822
C     -0.024749921916     1.794118907457    -3.249250398608
H      0.417726347773     1.549229940824    -4.211053210689
H      0.616040811520     2.326116139502    -2.553270262059
C     -1.282489197787     1.438921298516    -2.898900340127
H     -1.655880956705     1.682340347349    -1.912578315989
C     -2.218487314315     0.694109232747    -3.757172845553
O     -1.935000840060     0.491112034880    -4.970446757090
O     -3.502396523645     0.407233117674    -3.252777598738
C     -4.351522773869    -0.357007981664    -4.119381461279
H     -5.326737347311    -0.534312369631    -3.618551183785
H     -4.542705315559     0.191114164514    -5.069892598381
H     -3.889413907137    -1.344513991010    -4.348537999509
Pd     0.020191708085     0.369575922741    -0.124016450756
C     -2.276491799589     1.171879579538     1.358145699843
O     -1.316415245601     1.733873080175     0.566928307557
O     -3.097004372609     1.833429003850     2.013857323666
C     -2.224209988437    -0.395883266547     1.348907106401
H     -3.260906483896    -0.747967223223     1.431820852199
C     -1.447177437345    -0.933586952439     2.529648178128
H     -1.461854339784    -2.043119705077     2.505086567471
H     -0.391978572437    -0.597467393935     2.471647338324
H     -1.898848854997    -0.582935727317     3.481153948321
N     -1.528999341106    -0.850489536333     0.128769487359
C     -2.049420427827    -1.488010694365    -0.943300082695
O     -1.476526736757    -1.579458818846    -2.066958426905
C     -3.358224830557    -2.164968040741    -0.775323167802
H     -3.287471685810    -2.849674800782     0.086243259468
H     -4.132001965930    -1.391708368102    -0.640325631227
H     -3.575409481701    -2.739835786363    -1.694108969576
N      3.100492974533     2.081812800660    -1.168122883562
C      4.205589109311     2.641401489532    -1.749871291509
C      4.333773301413     4.019360416933    -1.799757438492
C      3.356990898598     4.833586831033    -1.262354780834
C      2.262026014044     4.241149040643    -0.681837847500
C      2.199169559789     2.826496023637    -0.668501922567
H      4.973318503405     2.004283663850    -2.173427935492
H      5.205341360846     4.453266231176    -2.262381504272
H      3.453727790723     5.915737337426    -1.297820265709
H      1.478105790444     4.826142600058    -0.246085427186
O      1.099096513550     2.255309422566    -0.091743146429
H      0.339362070386     2.807797049341     0.209898046199

