# sto-3g

title

0 1
 C                  2.16042279   -1.42975846   -1.61507584 0
 C                  1.14494382   -0.58035543   -2.13340057 1 1 3
 C                  1.49373742    0.70590076   -2.64220243 1
 C                  2.84191473    1.12676376   -2.62963086 1
 C                  3.83452846    0.27328418   -2.11607022 1
 C                  3.49407687   -0.99974985   -1.60288517 1
 H                  1.86952478   -2.40286344   -1.24248116 0
 H                  0.15768506   -1.00554885   -2.29647209 1
 H                  0.72763834    1.33457858   -3.08745667 1
 H                  3.10744395    2.10406767   -3.02326903 1
 H                  4.87369589    0.59447279   -2.11334727 1
 H                  4.26774033   -1.64987169   -1.20329252 1
 C                 -2.01713731   -0.89143000    0.76340873 0
 H                 -1.61920492    0.00592574    1.22408401 0
 H                 -2.01472860   -1.81921410    1.32801601 0
 C                 -2.49941500   -0.91597040   -0.50145786 0
 H                 -2.94542845   -1.81911137   -0.90166681 0
 C                 -2.41327259    0.21309049   -1.43446296 0
 O                 -1.45129265    1.04122014   -1.50292637 0
 O                 -3.48251967    0.25627485   -2.31955200 0
 C                 -3.50872448    1.27536008   -3.30166936 2 20 22
 H                 -4.42829059    1.17016294   -3.91728586 2
 H                 -3.52305807    2.28152537   -2.82415369 2
 H                 -2.62594551    1.19739308   -3.97547447 2
 Pd                 0.30729273    0.69244271   -0.28752856 0
 C                  0.61016888    2.33375316    2.03224012 0
 O                 -0.38049682    1.88135178    1.21599537 0
 O                  0.43973768    3.19965606    2.90698285 0
 C                  1.98856594    1.63226079    1.76642720 0
 H                  2.50553742    1.53695941    2.72991702 0
 C                  2.86332623    2.43444564    0.83188498 4 29 32
 H                  3.81235901    1.88750687    0.65378790 4
 H                  2.34797841    2.57365678   -0.13942587 4
 H                  3.08845068    3.42667034    1.27546729 4
 N                  1.69300812    0.35109124    1.10414043 0
 C                  1.71587822   -0.87294394    1.64128629 0
 O                  1.08792213   -1.87932262    1.18098580 0
 C                  2.57377662   -1.10163661    2.82602540 3 36 39
 H                  3.59356326   -0.75601070    2.58543078 3
 H                  2.14227496   -0.55844115    3.68247066 3
 H                  2.59027202   -2.18416556    3.05185755 3
 N                 -1.82955305   -4.02253631    0.71843857 5
 C                 -2.86158667   -4.90771026    0.87533327 5
 C                 -3.21083173   -5.75550742   -0.16122061 5
 C                 -2.51916008   -5.72294850   -1.35445082 5
 C                 -1.48467530   -4.83274367   -1.48135959 5
 C                 -1.16934593   -3.99372931   -0.38841941 5 52 42
 H                 -3.41025728   -4.93381724    1.80946887 5
 H                 -4.02790227   -6.44504441   -0.02913821 5
 H                 -2.78655906   -6.38705051   -2.17193088 5
 H                 -0.89823885   -4.75516210   -2.37411898 5
 O                 -0.14413249   -3.16470735   -0.62803119 0
 H                  0.20952409   -2.62560060    0.15933867 0


