# STO-3G

title

0 1
C     -0.870220900330     3.624329795236    -0.493355908275
C     -1.268126701333     3.696933765976    -1.851340238242
C     -2.079363662419     4.747361691382    -2.313884851915
C     -2.504831458861     5.752349083900    -1.424899424553
C     -2.107904057850     5.698671051992    -0.072214087574
C     -1.298950436109     4.648799097104     0.388853902689
H     -1.778925883910     1.219153985600     1.209914417767
H     -0.943456496424     2.918828088889    -2.540053557043
H     -2.376560695117     4.782994321402    -3.359207827078
H     -3.131137110523     6.567876252901    -1.778468960905
H     -2.426522821530     6.478681497898     0.615546263480
H     -0.990257704137     4.635456455824     1.431474872065
C     -0.039014383387     2.481866321587    -0.071266929426
H      0.158104877905    -1.926731808111     0.090525524647
H      0.289036810174     1.828306890361    -0.883234473180
C      0.310028043750     2.149130725840     1.200769896690
H      0.001397158687     2.741158557406     2.051865702118
C      1.106460770549     0.965062208877     1.538087737376
O      1.566484923888     0.229879508230     0.613594898588
O      1.358813351471     0.676648301219     2.890246402621
C      1.985172125699    -0.585418638490     3.159033702442
H      2.123772623918    -0.699550752183     4.255892232899
H      1.345092324410    -1.426359788606     2.806177038358
H      2.987169991947    -0.645713881679     2.676770506330
Pd     1.325889050190    -0.734183193008    -1.487852856511
C     -1.391460971881    -0.884010858028    -0.375433856788
O     -0.794596371486    -1.798467674970     0.424640573631
O     -0.794388188496    -0.415413519264    -1.385571930768
C     -2.727413336930    -0.384345787311     0.174277881141
H     -3.327397625504    -1.234826643910     0.516222404056
C     -3.510109474697     0.453341735748    -0.810218065088
H     -4.475045947773     0.750085470844    -0.350144091334
H     -2.938700596419     1.376214893997    -1.045295748707
H     -3.705352791414    -0.119255617115    -1.739202338022
N     -2.417712123773     0.438732766008     1.345601700913
C     -2.795808314948     0.037312432883     2.593399510603
O     -3.469359545533    -0.984759948397     2.842526610198
C     -2.365267300942     0.924287603348     3.693601908923
H     -2.765020913172     1.931462751590     3.487492945931
H     -2.769198931949     0.528161833492     4.640816976345
H     -1.262706139433     0.934447859493     3.715226937482
N      3.374872442660    -0.973331525825    -1.583286222940
C      4.149797084108    -0.395145813514    -2.553613792067
C      5.517298871731    -0.584838389146    -2.544331063022
C      6.114149993273    -1.347172897350    -1.560850874020
C      5.313174165137    -1.907539293726    -0.598944180393
C      3.926210791232    -1.680953230308    -0.647856377041
H      3.688204852536     0.204099493335    -3.330141918816
H      6.122940124328    -0.128057779024    -3.311124394478
H      7.190703794181    -1.497931411188    -1.548008147476
H      5.709126926460    -2.507214066311     0.197128494862
O      3.216953242313    -2.257725339437     0.328630399596
H      2.251614545717    -1.979641189136     0.155172334370

