# STO-3G

title

0 1
C      2.456051473627     2.748438127550     0.641809047765
C      2.945627725553     1.425917923011     0.573219316868
C      4.319138225557     1.172970324350     0.729164739113
C      5.221278336789     2.232486992697     0.950738868397
C      4.740023941594     3.553457718600     1.012844691551
C      3.364491152143     3.807584953592     0.855523723649
H     -2.238058991711    -1.723857001999     2.247326954915
H      2.269898098312     0.593640630893     0.393257234672
H      4.681895158415     0.149746295195     0.673891059536
H      6.283402533297     2.030808739085     1.068296525960
H      5.428110530042     4.378790366830     1.180832552070
H      2.998357520239     4.832232148113     0.904589166151
C      0.981515868427     3.062849891150     0.498486906585
H      0.777229189664     4.130660292649     0.621766237098
H      0.745652263768     2.994540974979    -0.706303949976
C      0.006045798591     2.158275428805     1.183332180070
H      0.409384368057     1.325403676582     1.742079942273
C     -1.285404736056     2.665103293310     1.675731788584
O     -1.911734644433     3.472589562048     0.938556355505
O     -1.913530962894     2.019478384805     2.750882653208
C     -3.258943193094     2.427762689471     3.033718795225
H     -3.642030939304     1.852199940550     3.904025748710
H     -3.301013806911     3.511511376670     3.286202405970
H     -3.925158572939     2.220510041052     2.165469170748
Pd    -0.416498524850     1.626370262690    -0.779192552246
C     -0.391437175668    -1.121564682955    -0.058688421242
O      0.704943164129    -1.129888767648    -0.727897449713
O     -1.307616241967    -0.199198831321    -0.129769857876
C     -0.607786416914    -2.255789905225     0.968583803108
H      0.388561492116    -2.639798642591     1.207577357771
C     -1.458589817002    -3.381736569837     0.421477511466
H     -1.548911948753    -4.180401207960     1.186634695418
H     -2.471463594470    -2.998123294085     0.182052825740
H     -0.993433590353    -3.804301739850    -0.492946345807
N     -1.228516528718    -1.760517348200     2.194707557013
C     -0.480974120808    -1.031643188489     3.069836521971
O      0.704213460663    -0.678574700249     2.851946462523
C     -1.099976583380    -0.698860018658     4.371523894280
H     -0.498689918338    -1.189774960313     5.154145737988
H     -1.056269589132     0.394736284470     4.492522096336
H     -2.143937065358    -1.054346211322     4.410007125745
N     -0.558196843707     1.419639581830    -2.899931367221
C     -1.439025325568     2.196320941287    -3.604151807281
C     -1.379577771308     2.232922689647    -4.981753326742
C     -0.444584302447     1.483479378209    -5.662322305576
C      0.412195340694     0.699610298651    -4.935780641801
C      0.314709555159     0.680931132811    -3.527944044510
H     -2.172031663177     2.795233767435    -3.075770828502
H     -2.071579476488     2.853639425202    -5.527712092841
H     -0.391850044276     1.509012377731    -6.747671636218
H      1.156173204692     0.084054211919    -5.402046246300
O      1.171025184416    -0.123009176273    -2.936767207991
H      0.978737369351    -0.440720137844    -1.944214559706

