# STO-3G

title

0 1
C     -0.350238178008     3.770154396230    -0.152039481483
C      0.553458977490     4.852797370802    -0.232921904527
C      0.136605186206     6.099623979702    -0.737390922980
C     -1.190897334889     6.280970787361    -1.167825822646
C     -2.099122506311     5.207263618166    -1.083036338065
C     -1.684654574328     3.962943646316    -0.575891786908
H     -3.660107072937    -1.531786335362     2.086776542353
H      1.579744700863     4.731982324873     0.106128850062
H      0.843752338574     6.924714642170    -0.791204319048
H     -1.513468080688     7.242935491915    -1.559913916636
H     -3.128452071942     5.339320817747    -1.409340282723
H     -2.388936515444     3.139699174993    -0.494025708605
C      0.084335327745     2.433598368099     0.429090222280
H     -0.176898068648     2.353218699861     1.492006166515
H     -0.674631563556     1.660018225495     0.006266184356
C      1.500260949317     1.971250934083     0.131443592219
H      1.997775964652     2.501857431702    -0.672425218668
C      2.431192582813     1.549552422500     1.194431665167
O      1.969412052974     1.000078232390     2.226758865816
O      3.805059389277     1.527757036653     0.903481738605
C      4.637564709110     0.866737782658     1.867028970259
H      5.696510457515     0.912703906451     1.533506272142
H      4.562939827637     1.360541386462     2.862626915302
H      4.353067951837    -0.206406811050     1.964498870464
Pd     0.559603629229     0.355471348544    -0.683481136390
C     -1.599694896325    -1.469847967709    -0.188280781911
O     -0.898776771368    -1.855905518982     0.840716628287
O     -1.101402790157    -1.003348879486    -1.275362770282
C     -3.133742398845    -1.554652722972     0.044910711884
H     -3.392035899686    -2.615584711788     0.149241734533
C     -3.969714159572    -0.954174313868    -1.065525742915
H     -5.044342476687    -1.031500487950    -0.800562096740
H     -3.712341064752     0.115186859103    -1.203928793795
H     -3.788191879990    -1.497900815956    -2.015099849816
N     -3.463819370000    -0.901684262455     1.320039942279
C     -3.133159254982     0.379554400541     1.616460027610
O     -2.640041732574     1.205604204275     0.808754695532
C     -3.395568756793     0.800326387646     3.008111710049
H     -2.788612846312     0.163543064034     3.674169118614
H     -3.107239078322     1.860317552507     3.117931297558
H     -4.472302470979     0.666944897950     3.210300276600
N      2.222052927169    -0.822917617138    -0.873212616093
C      3.219868890425    -0.475119056969    -1.743039894991
C      4.394873780957    -1.194482809642    -1.770310180685
C      4.576501242786    -2.270216268682    -0.930707842162
C      3.562532085754    -2.605061446954    -0.073733436329
C      2.365304323732    -1.853919334620    -0.069950270045
H      3.088125580888     0.374127470867    -2.403357012580
H      5.176788306180    -0.908886070005    -2.454963289740
H      5.501318929698    -2.840814438792    -0.948579340693
H      3.639505314310    -3.434284284493     0.601603439762
O      1.477623836789    -2.268758678162     0.784698196198
H      0.389501291492    -1.972025977673     0.789867588722

