# STO-3G

title

0 1
C     -0.349040556023     3.769185973195    -0.256219329242
C     -0.418860157550     4.996008081829     0.437143175434
C     -0.729390239610     6.187635834728    -0.244915138924
C     -0.979264400917     6.165470561568    -1.630660589380
C     -0.922514089856     4.942573916300    -2.327438244944
C     -0.611951522059     3.753645917030    -1.642862026614
H     -3.599672208169    -1.696807160798     2.238930420218
H     -0.235097773816     5.019619782600     1.509802222625
H     -0.781590874304     7.126278494027     0.302526380573
H     -1.223974085560     7.085152917352    -2.157072355111
H     -1.129698658441     4.914323632997    -3.394780657388
H     -0.589705228399     2.806575286923    -2.181296220912
C      0.034441578654     2.500396119625     0.475599759107
H     -0.231051647974     2.524233816794     1.536702776783
H     -0.734555315206     1.691498180762     0.138714370401
C      1.453339320489     2.014003224135     0.211171379755
H      1.990154470320     2.562256088371    -0.553344957435
C      2.333903902451     1.531223473494     1.290788108356
O      1.817593026608     0.971623689793     2.291590075085
O      3.712207647623     1.447259258411     1.034477192252
C      4.484831113585     0.718901970128     1.999291600274
H      5.553178780890     0.720600045498     1.693727376547
H      4.408631540666     1.188598595150     3.006306131453
H      4.144774145559    -0.340836647969     2.058593653543
Pd     0.477675315868     0.443339249451    -0.645859045700
C     -1.677684667526    -1.387341247128    -0.153130562762
O     -0.922760690296    -1.900435303397     0.776167590713
O     -1.238839575983    -0.848110749847    -1.232942827219
C     -3.193854105304    -1.425946679347     0.186994209805
H     -3.514333429516    -2.474397585782     0.141877175521
C     -4.061622401115    -0.609750749177    -0.747755737646
H     -5.119453765726    -0.676030881994    -0.419617476943
H     -3.749511953100     0.454129326405    -0.728609633499
H     -3.976586679649    -0.997137734231    -1.783615667787
N     -3.395631703883    -0.968379268041     1.567781110448
C     -2.934367412085     0.219896034603     2.035576555273
O     -2.423616997489     1.124571915221     1.331282672808
C     -3.071748780521     0.427354266607     3.492004943945
H     -2.482001107884    -0.354090543269     4.000882104470
H     -2.684002440226     1.429327221382     3.744460250276
H     -4.141299201525     0.346012337852     3.751455372194
N      2.126803620701    -0.720331511899    -0.988149245332
C      3.096348057771    -0.294715888917    -1.855255225840
C      4.270365161798    -1.004648992590    -1.982769104399
C      4.480648757738    -2.147609888906    -1.244956937946
C      3.495445987633    -2.559070167487    -0.387898401926
C      2.298254583424    -1.815405537731    -0.280253876893
H      2.942330408644     0.607378889805    -2.435857968349
H      5.029827456332    -0.657652728682    -2.664319432149
H      5.405381728364    -2.710444799991    -1.341208641963
H      3.595989347645    -3.442348741588     0.211422246295
O      1.441830715732    -2.302845315712     0.566422990319
H      0.346613743797    -2.013217926595     0.643836926962

