# STO-3G

title

0 1
C      0.704758269015     2.678968169950     2.590640802212
C      1.777211383626     3.119381436963     3.394140564859
C      1.535081110358     3.881913349646     4.552895270932
C      0.216445991554     4.204240471706     4.925413432205
C     -0.860321235109     3.753026891848     4.136125079294
C     -0.616489214026     2.993555779420     2.978392484490
H      1.096562709219    -1.515530079311     2.514518411989
H      2.796692094291     2.858831749790     3.118163425123
H      2.370720483507     4.215905790400     5.163641921138
H      0.029412911256     4.788887434021     5.823068677736
H     -1.882168701947     3.983567034718     4.428416350494
H     -1.452777912659     2.628017458612     2.383588478039
C      0.988904114248     1.892225465785     1.328970240413
H      2.025938168882     1.552685864225     1.267234196836
H      0.486200055133     0.835128167674     1.489887795157
C      0.442172242904     2.478224620953     0.041997723717
H     -0.109480577181     3.402176769857     0.147000945551
C      1.184136884988     2.378897033954    -1.226156979019
O      1.744115688984     1.283237565985    -1.489930448478
O      0.881869623790     3.302165020862    -2.239850244325
C      1.397907898870     2.994017294416    -3.542715878853
H      1.104662458778     3.795573083137    -4.254424743254
H      2.509831616243     2.932478775568    -3.525594412663
H      0.979126909627     2.031222002164    -3.916668453421
Pd    -0.754737293719     0.814624746680     0.085331350670
C     -0.444721725537    -2.065617268093     0.137146326484
O     -0.122421993533    -2.078603535850    -1.118161011847
O     -1.298973038694    -1.258692717788     0.677539321205
C      0.444694018203    -2.937067561878     1.063466022229
H      0.938343436929    -3.706162467609     0.465341395924
C     -0.323914741975    -3.621893184890     2.173005294736
H      0.382045834167    -4.194304148441     2.810019294050
H     -0.835793564585    -2.865766747139     2.803991759404
H     -1.077124658452    -4.315222237047     1.746031259071
N      1.412475590570    -2.006978431614     1.679530900223
C      2.487063335144    -1.358776345491     1.137318263289
O      2.994614959796    -0.353957921571     1.702852978696
C      3.091846928946    -1.829272213341    -0.127404515914
H      2.605113030369    -2.727938380349    -0.522679983009
H      3.004030666344    -1.004552706281    -0.856221982079
H      4.157105034025    -2.037414071146     0.072263952425
N     -1.807044025415     1.239835088945    -1.620435186950
C     -2.571273471370     2.375402141027    -1.637885052628
C     -3.182296212847     2.781274251931    -2.803656307032
C     -3.036051718287     2.050972891915    -3.960873828863
C     -2.275026798386     0.913733639472    -3.919814993596
C     -1.663122726107     0.516700762218    -2.708984289710
H     -2.688395411441     2.960502282951    -0.733074169155
H     -3.776720928790     3.680561236776    -2.807570820222
H     -3.515115114869     2.367461901634    -4.883714070592
H     -2.128446465354     0.298666284029    -4.785629947557
O     -0.971280882381    -0.577376334645    -2.803863380531
H     -0.578574973099    -1.198395434281    -1.956788745216

