# STO-3G

title

0 1
C      0.947048019387     3.366537723357     0.730618821499
C      1.824548546377     4.464230965827     0.448615063979
C      1.419594493083     5.529600551682    -0.355934856484
C      0.137392720674     5.524846544156    -0.959401889135
C     -0.731269056783     4.452619627649    -0.725681649784
C     -0.350588309434     3.376003870249     0.122019680917
H     -3.401895162820    -0.592038143401    -0.352017538290
H      2.811071799586     4.470082868975     0.908043833558
H      2.096331575478     6.363073184896    -0.528916663964
H     -0.168681993028     6.351485746495    -1.595509634476
H     -1.725225016974     4.446953626996    -1.166118725925
H     -1.094794814748     2.648352043413     0.426496498647
C      1.389444641434     2.355927640178     1.720057861285
H      1.956841628542     2.752203632744    -1.650064856342
H      2.473049419658     2.292886860790     1.828361998109
C      0.578501096746     1.553130305096     2.453448170198
H     -0.496558629938     1.592138693404     2.344269219473
C      1.065476903824     0.544962708247     3.407945015246
O      2.301443534564     0.440662767046     3.645336344820
O      0.135745537509    -0.329730376280     4.000426646570
C      0.683322404044    -1.339492050732     4.858360980299
H     -0.141629359857    -1.962962879599     5.264363002562
H      1.376994379978    -2.002206430630     4.292662428751
H      1.226078686172    -0.878266842099     5.714286371698
Pd     0.888573698874     1.781171498223    -1.156976658159
C     -0.554573726865    -0.563406043891     0.328260646746
O     -0.672332918957     0.408156879475    -0.498504957665
O      0.560976122797    -1.112637001250     0.695122205538
C     -1.848241349247    -1.089334529395     1.002063043473
H     -1.724303861623    -0.933324377846     2.079369646519
C     -2.089154577141    -2.562046070441     0.749419264542
H     -3.012907003943    -2.878604681102     1.276502282957
H     -2.218780970159    -2.736806421700    -0.337495840357
H     -1.233942032543    -3.160980072946     1.125216147865
N     -3.016308978363    -0.343152894827     0.549769335346
C     -3.272489172447     0.887688009435     1.065552150684
O     -2.587825612227     1.432444828147     1.966057370736
C     -4.440465577711     1.617551906057     0.525531909481
H     -5.106727389106     1.841977883176     1.375120499908
H     -4.065058382789     2.550534650111     0.076046409509
H     -4.973471436761     1.007532747668    -0.224216376860
N      1.847911231465     0.439638611664    -2.375510412620
C      1.903264576933     0.682881964472    -3.721319098608
C      2.778197290388    -0.024662429654    -4.515718077873
C      3.590584913673    -0.994350230920    -3.971413555705
C      3.501580265011    -1.237074286526    -2.626839044678
C      2.591367997821    -0.500931399626    -1.834708030612
H      1.270352464048     1.446577555640    -4.158420527178
H      2.821063642134     0.178486239236    -5.573735111924
H      4.280674206303    -1.557764437492    -4.594241848300
H      4.097873207076    -1.986799620432    -2.144504565897
O      2.574288057380    -0.831462299595    -0.577247724314
H      1.620983433339    -0.847760790764     0.062291526637

