# STO-3G

title

0 1
C      2.221460817296     0.752309951328     1.414277915556
C      1.962372210277    -0.274269794469     2.359160616600
C      1.220912333889     0.003572114104     3.511336799662
C      0.717241037259     1.309076653114     3.751487539426
C      0.969502635369     2.336336131063     2.841693577091
C      1.719430518351     2.069236043744     1.659723717456
H      2.869777320086     0.583267458835     0.558010814008
H      2.352479884308    -1.273124125809     2.184270962920
H      1.022842179609    -0.785719758521     4.232197256755
H      0.134427954258     1.504112093393     4.647493762040
H      0.607940525724     3.343506601712     3.031449391919
H      2.069384683451     2.896990792879     1.049468963104
C      2.167469813867    -1.283935645845    -2.223325144253
H      1.920403967337    -1.266431101576    -3.283311162475
H      2.733324734456    -0.433908670077    -1.853264831582
C      1.774644502742    -2.280240850385    -1.396743242583
H      2.027179532812    -2.234040113833    -0.344962595999
C      0.995669998048    -3.457688883893    -1.812674381043
O      0.471498169273    -3.491145020178    -2.960505422357
O      0.676163333784    -4.422275207261    -0.841139569606
C     -0.160095509343    -5.502644914377    -1.278386386471
H     -0.332617654080    -6.200493707762    -0.430592846390
H     -1.149093634088    -5.123881776590    -1.622440625846
H      0.326744440796    -6.071349841723    -2.102963198475
Pd     0.313013192986     1.124909165825    -0.074800704275
C     -2.127593631223    -0.040240589780     0.801449759147
O     -0.904726922487     0.272252483475     1.266682740599
O     -3.153280259413    -0.109115122369     1.504433233969
C     -2.149427820469    -0.434813583875    -0.706370602978
H     -3.139180683687    -0.171144269402    -1.098637498244
C     -1.931257883907    -1.933924330109    -0.814853677997
H     -1.881200029373    -2.269482792686    -1.867818214783
H     -0.981329468561    -2.199392705599    -0.307735664398
H     -2.761322210414    -2.474021794741    -0.312650952172
N     -1.049517698572     0.268828172619    -1.424683137789
C     -0.832860669901     0.297132251033    -2.707788409693
O      0.235760557663     0.859905529958    -3.255065472087
C     -1.752977218909    -0.269950508400    -3.711450631881
H     -1.248867977898    -1.144223926652    -4.163203685988
H     -2.716938862990    -0.567128919014    -3.278333249611
H     -1.930600782640     0.497048787332    -4.486612460337
N      1.318407047808     2.391752667722    -1.406880370018
C      0.600828395262     3.550601605932    -1.583680533430
C      1.233976321729     4.708857740920    -1.969274230420
C      2.592233589311     4.737557557378    -2.185721598290
C      3.315198458636     3.596061490477    -1.976663920164
C      2.677062554823     2.409420322244    -1.541245577990
H     -0.474876817101     3.541871789973    -1.448490414708
H      0.652038001783     5.604103384035    -2.119445221057
H      3.084159419120     5.653776862972    -2.502170312424
H      4.380117001497     3.568762692551    -2.098562379137
O      3.415338052777     1.416789455154    -1.303398939038
H      0.854647116514     1.323923917697    -2.577094797139

