# STO-3G

title

0 1
C      0.939238622813     4.148178390397     0.716815120786
C      2.053153245819     4.989199177443     0.476341020527
C      1.909198103438     6.197674499466    -0.225060989793
C      0.642853743726     6.585795373698    -0.702401850206
C     -0.472232701860     5.752905599690    -0.475546937496
C     -0.329947026185     4.545046110623     0.224561588264
H     -0.476951028240    -0.555122178715     0.413509038649
H      3.034574865506     4.692447129752     0.843437893670
H      2.775554772226     6.831932594147    -0.395905543993
H      0.525509995237     7.521091623664    -1.244481483916
H     -1.450462564499     6.045591823512    -0.849322476867
H     -1.196229806742     3.905405168779     0.361365941357
C      1.164555947203     2.902977746088     1.486597944730
H      2.268105876923     0.896192258616     0.433744804587
H      2.191271072885     2.759079216771     1.817167873299
C      0.177447428356     2.047760688868     1.999048980180
H     -0.865967017596     2.269296678998     1.834489477079
C      0.431696037136     1.007452229595     3.007043945511
O     -0.546832656182     0.459448278017     3.579525184106
O      1.752040128898     0.568803504607     3.215086310158
C      1.909993037924    -0.514875461675     4.143051585191
H      2.985838099671    -0.779906443812     4.224547842136
H      1.542659786134    -0.228794446629     5.154505547853
H      1.360842843216    -1.420544229396     3.796567807781
Pd     0.839782161331     1.239978365602     0.004363383220
C     -0.510511358312    -2.368202194510     1.669409461356
O      0.532583002504    -1.665688387695     1.243449777322
O     -0.515643872772    -3.381719536191     2.397539240320
C     -1.901253671233    -1.750417365925     1.165502333172
H     -2.514646563405    -1.524002208385     2.046181163781
C     -2.633986882326    -2.712765148323     0.257393096457
H     -3.627514215676    -2.304596712208    -0.009358034641
H     -2.040391558638    -2.868654735909    -0.667182911079
H     -2.775849320580    -3.686135378136     0.771772998010
N     -1.518044583565    -0.555272372147     0.404629904137
C     -2.077769447771     0.542689060143    -0.068012851412
O     -1.361479786977     1.518092685187    -0.516336122493
C     -3.542261182684     0.672380247484    -0.068955336087
H     -3.901068817517     0.525687099887     0.963704329789
H     -3.804043733193     1.683818113636    -0.426366900002
H     -3.957396400603    -0.087509129912    -0.750797544860
N      1.242989399590     0.116477887135    -1.667571516455
C      0.973838215664     0.734613957176    -2.858711588047
C      1.436852047735     0.188084317615    -4.036608154389
C      2.155347324840    -0.986806370121    -4.028660403846
C      2.387413847946    -1.600795082848    -2.825968199820
C      1.889911454757    -1.026025011692    -1.635285323882
H      0.417488205494     1.665289570819    -2.870494887549
H      1.230457979362     0.687263512466    -4.969327517730
H      2.520939299163    -1.421741618867    -4.955161950693
H      2.920231593378    -2.528528853219    -2.756517684492
O      2.133566143226    -1.723600378390    -0.562853933912
H      1.497595948314    -1.678157214993     0.323614605090

