# STO-3G

title

0 1
C      0.619006749613     3.827692971669     0.168955674479
C      1.978652533797     3.427696611450    -0.027935810249
C      2.652349628470     3.744580513266    -1.241632921356
C      1.996353776381     4.450878740701    -2.252644189322
C      0.639648976436     4.834495903646    -2.075982866712
C     -0.038622264013     4.514508721513    -0.896860754039
H     -3.249289872006    -1.508636387583     0.385273381642
H      2.566190135680     3.042239603362     0.803186414092
H      3.691312072104     3.445825539904    -1.360368148913
H      2.523967996360     4.715447168364    -3.165959792813
H      0.130719887212     5.393797521517    -2.857793169666
H     -1.072683277887     4.823193321717    -0.760231840975
C     -0.059489475109     3.636694590028     1.533133773040
H      0.481755559028     4.203747260121     2.301608999488
H     -1.081316202931     4.023730273329     1.490399887107
C     -0.092610437110     2.114092637493     1.797375096364
H     -1.089555408201     1.700126134958     1.875765496220
C      0.800760910096     1.505562720486     2.811229532720
O      1.940725549033     2.004111731240     3.001794524888
O      0.448458807861     0.267461891863     3.368315414042
C      1.438331139244    -0.360633466359     4.194058776737
H      1.037002179260    -1.322831785041     4.578874391470
H      2.358698462946    -0.581871159531     3.606903791703
H      1.695463028339     0.283080703030     5.065448274324
Pd     0.528910325781     1.490074710218    -0.082593517345
C     -0.441125637014    -1.123341146073     0.834521184052
O      0.775645493301    -1.517363935261     0.938818790142
O     -0.820152033071    -0.092397905391     0.139297267714
C     -1.567229620674    -1.836414914300     1.626075944220
H     -1.364751810987    -1.647449664841     2.686902455569
C     -1.608247347246    -3.330192288855     1.391284053657
H     -2.413444036072    -3.777986787066     2.009585055846
H     -1.823339353815    -3.531524350513     0.322498107900
H     -0.637042127330    -3.789434708791     1.668958699449
N     -2.873259554648    -1.277397369473     1.296829890269
C     -3.330117047481    -0.152399545518     1.913623305746
O     -2.758282927581     0.439321115619     2.858614954860
C     -4.612874232019     0.372080623331     1.398467296325
H     -5.366400566940    -0.426797770666     1.502109977081
H     -4.898222210621     1.255121541819     1.995576468800
H     -4.472784522556     0.644585358606     0.338406232446
N      1.305692548741     0.727606857060    -1.961753167233
C      1.078347724982     1.378367133000    -3.143867796161
C      1.804337834386     1.043207992187    -4.268899700192
C      2.754210118647     0.046822071985    -4.216234670797
C      2.946674488107    -0.605237362506    -3.026936485424
C      2.175806514423    -0.240880439796    -1.900566125411
H      0.333108726512     2.163041152008    -3.191981041050
H      1.623319953456     1.567516487462    -5.192503069983
H      3.330396274066    -0.220944604690    -5.097898068184
H      3.659149166254    -1.398850106103    -2.920769646900
O      2.437294573476    -0.954291513263    -0.823094660829
H      1.735582132536    -1.059114647554    -0.035763643654

