# STO-3G

title

0 1
C      0.940268740712     3.537660423508     0.380425521848
C      2.215485662124     2.910910595058     0.204108161223
C      3.011660965025     3.213216485946    -0.937445715649
C      2.564732427730     4.129924798455    -1.891766846591
C      1.296132889281     4.749135214815    -1.731026867869
C      0.493392007500     4.443095089907    -0.628788758040
H     -3.683713768830    -1.101889588240     0.287371222353
H      2.670991737926     2.342838451667     1.012402693829
H      3.980993377994     2.732230373983    -1.046202153012
H      3.187832983539     4.375688388940    -2.748445612060
H      0.952401733621     5.473346337830    -2.466347941352
H     -0.473462446588     4.926622867840    -0.506930444444
C      0.137965394172     3.328806595670     1.672767433998
H      0.644001286067     3.814693716349     2.517351082647
H     -0.846225842172     3.793960757170     1.565766447075
C     -0.036247945411     1.803766040750     1.833994084875
H     -1.066021739246     1.473870493917     1.866625613388
C      0.765731557664     1.050610687810     2.825419404365
O      0.522825567194    -0.170528402747     2.993091233402
O      1.923489264374     1.638469303166     3.365094328834
C      2.690380705515     0.811451674970     4.252050915460
H      3.568511469543     1.382641468982     4.623095216517
H      2.080167140166     0.501558988301     5.130985932370
H      3.063739598399    -0.096229450389     3.724830049438
Pd     0.495008535126     1.258811441656    -0.099568863332
C     -0.876663009763    -1.256410836476     0.544138541643
O      0.230198733371    -1.899196093371     0.457966780196
O     -1.099697449575    -0.097979476339    -0.004474093950
C     -2.042240377871    -1.815943585471     1.399282554965
H     -1.731054620286    -1.716682869779     2.446385226043
C     -2.354780674578    -3.267844239882     1.111852913154
H     -3.175591829858    -3.606289146892     1.777218574787
H     -2.679599218063    -3.374964820258     0.057564577623
H     -1.457847360908    -3.895916226489     1.291912471902
N     -3.259908447247    -1.033332469183     1.204292315972
C     -3.522487876976     0.058984935893     1.974672183967
O     -2.814082890326     0.453177144133     2.931755413853
C     -4.748258513882     0.822736331008     1.648032620903
H     -5.367734420866     0.854111382216     2.559761628220
H     -4.437007733243     1.838540145080     1.357826880052
H     -5.308196514385     0.338594625730     0.828801073343
N      1.112336170304     0.637756107601    -2.081995012368
C      0.983258828777     1.480258279840    -3.152518041341
C      1.619225409925     1.189900746095    -4.342581822833
C      2.378621910734     0.047482954753    -4.468284111580
C      2.473118853320    -0.791734003744    -3.389889534639
C      1.796319933284    -0.467063430301    -2.192820844257
H      0.386925523242     2.379698534028    -3.061049761467
H      1.517010065818     1.863937392073    -5.176751890901
H      2.882560248510    -0.186847656595    -5.402162180952
H      3.033762900723    -1.704541173418    -3.424973150496
O      1.944411036395    -1.360192877531    -1.237177268371
H      1.227378731897    -1.476208852994    -0.453486861982

