# STO-3G

title

0 1
C      0.378476170508     3.893486108969    -0.601418597374
C      1.241658289394     5.003330762430    -0.487887607909
C      1.676387203751     5.693153232288    -1.636230426649
C      1.243161161474     5.283211263578    -2.911043656911
C      0.372001354282     4.181589376217    -3.029753550222
C     -0.057736177464     3.492855257925    -1.882807958844
H     -2.089125089855    -1.834578957904     3.289691440266
H      1.578922505125     5.329071274484     0.495069666075
H      2.341309648914     6.547958591057    -1.534519497522
H      1.570322110192     5.819786555348    -3.798721005725
H      0.026184510995     3.863049256203    -4.010447568197
H     -0.724939438363     2.636937114121    -1.980852451166
C     -0.031850474145     3.132567814068     0.640746868742
H      0.227745334997     3.664677408816     1.564151373775
H     -1.222781588710     3.188253842497     0.746582102376
C      0.335221113866     1.672027872193     0.663138374003
H      0.898285408717     1.261986692833    -0.178094630110
C      0.620733733613     0.994719625991     1.942102393979
O     -0.113259265765     1.265031115988     2.929940830113
O      1.567537183413    -0.036969988064     1.986917067881
C      1.553137502840    -0.854520489962     3.164208689255
H      2.333465599310    -1.640366526778     3.070269452368
H      1.770654313446    -0.249761557195     4.072898494577
H      0.568507788446    -1.364080004815     3.275535429776
Pd    -1.686721369969     1.454117428081     0.320206573569
C     -1.413014463043    -1.408707869560     0.299958941877
O     -0.205281167091    -1.784679828974     0.448165323199
O     -1.816504553939    -0.460831427495    -0.508894792010
C     -2.467183626314    -2.086869712850     1.233786160506
H     -2.090365879330    -3.088091184654     1.466366552113
C     -3.853265815272    -2.204533334533     0.634097811825
H     -4.533964482980    -2.683224280053     1.367995017039
H     -4.250626064337    -1.202311785122     0.377333532442
H     -3.815370564037    -2.824569787140    -0.284888840268
N     -2.544494739994    -1.361265881046     2.518908024645
C     -3.004483313435    -0.102404674060     2.732223334051
O     -3.431237133416     0.690442763615     1.846875966007
C     -3.011559845393     0.336995223344     4.143577134582
H     -1.972237438886     0.314710158938     4.514550756004
H     -3.414197908523     1.362791807774     4.197826918274
H     -3.646121631830    -0.359554280975     4.718413411082
N      2.232590277670     0.640372242042    -1.431772556037
C      2.974520782654     1.600043809596    -2.067938424529
C      4.028265556299     1.234183490097    -2.885102913539
C      4.343863570708    -0.095425283160    -3.064097158698
C      3.588993854036    -1.035728068512    -2.414085268037
C      2.521220509094    -0.611902663739    -1.588893972290
H      2.738720846417     2.647092712823    -1.924905379920
H      4.603681291993     1.998758867240    -3.378903596566
H      5.171507625125    -0.390379308562    -3.703162054370
H      3.778405063494    -2.085970432913    -2.504066393431
O      1.873346374282    -1.626789428959    -1.022175060791
H      1.054820631856    -1.473012202198    -0.435891103574

