# STO-3G

title

0 1
C      3.296274595182    -0.206417931959     0.002675781881
C      3.032362669804    -0.040581181933    -1.395568972922
C      3.248794285859    -1.136069427516    -2.285995755247
C      3.692095443443    -2.365120043937    -1.788514481398
C      3.956345868826    -2.530281017041    -0.398287680192
C      3.778381999783    -1.463542261393     0.485792389727
H      3.277191893026     0.652308197471     0.665374486761
H      2.811040643587     0.943175393624    -1.798859817627
H      3.075931834139    -1.000862165665    -3.349775037424
H      3.849430299155    -3.200286998138    -2.465929995051
H      4.305351492017    -3.489966237890    -0.027241443550
H      3.993053553090    -1.579268599081     1.544262761621
C      0.756608169880     1.376891060791     0.353797591128
H      1.447318356379     1.969407249070    -0.245883908676
H      1.030698215774     1.325015032538     1.411831490855
C     -0.706318260612     1.787744689227     0.159899567492
H     -1.300719132739     1.138462502741     0.788413325234
C     -1.080740181747     3.159976637202     0.631018761651
O     -0.222900707488     3.865548691686     1.239502454481
O     -2.448003230926     3.504540019796     0.686282660070
C     -2.744228604734     4.811334779806     1.195436919568
H     -3.842643566069     4.973628583055     1.169901554168
H     -2.401224702571     4.910944965930     2.249525655087
H     -2.258349581435     5.594805888272     0.571126465384
Pd     1.058167936087    -0.553156919118    -0.229277308869
C     -2.033783068756    -0.652223463467    -0.285650077089
O     -0.871804035480    -1.075875228857     0.251140819167
O     -3.150704939043    -0.997262131483     0.142292564846
C     -1.924390279125     0.268631472755    -1.545623077055
H     -2.963368640776     0.505881551556    -1.806699551900
C     -1.273788688021    -0.513490364892    -2.684694778939
H     -1.561416221672    -0.097032739351    -3.667596989988
H     -0.172236789932    -0.481618472759    -2.581119782509
H     -1.611161016186    -1.571877243523    -2.674881910533
N     -1.136054603531     1.519811054130    -1.267399798551
C     -0.687489280624     2.417368280119    -2.208455428803
O      0.226774338112     3.243087937533    -1.953037484066
C     -1.391405439147     2.552154233390    -3.506469864500
H     -0.769872570102     2.085444917489    -4.286305991249
H     -2.400063328913     2.118283464464    -3.441791049894
H     -1.494086028128     3.632835991611    -3.712611891443
N     -0.692329454729     0.867260912996     3.135098150016
C     -0.712792329446     1.926052715832     4.003307732409
C     -0.098043318084     1.818616154555     5.238843252076
C      0.529776481372     0.647857799047     5.609747816338
C      0.532431200859    -0.397889129417     4.722675853345
C     -0.114089197784    -0.234073254030     3.477697002875
H     -1.203996084593     2.848509909892     3.716665680181
H     -0.116713586420     2.659941203471     5.911436834629
H      1.008796921889     0.556779564190     6.580819114497
H      0.987762379717    -1.340601705715     4.947437786027
O     -0.049367011447    -1.316362502359     2.688695017642
H     -0.543257024092    -1.235480388100     1.807191147999

