# STO-3G

title

0 1
C     -0.031517982107     2.871239264174    -1.667813861998
C      1.226524450967     2.298757694778    -1.959411099758
C      1.893840420795     2.644678649130    -3.151271420407
C      1.307898536663     3.559179764451    -4.048564797609
C      0.052702474852     4.131474606383    -3.756960231921
C     -0.615823269949     3.790104047456    -2.565369040085
H     -0.531410481051     2.629022721677    -0.735431565245
H      1.675814348807     1.586647927764    -1.270716671677
H      2.860932643841     2.201738149208    -3.375164160315
H      1.823895190430     3.823260197633    -4.968754616554
H     -0.398113072046     4.836898645889    -4.450912965377
H     -1.579037108669     4.238153169015    -2.332547742296
C     -2.422894977894     0.570681339357    -0.009910089522
H     -2.157464323196     2.049079667329     1.030475946383
H     -2.645035032418     1.173864200899    -0.899405278563
C     -3.470219296064     0.127159547679     0.733132768554
H     -4.490361543539     0.394991294754     0.480192354876
C     -3.316678058842    -0.753641408624     1.899924829817
O     -2.183166206222    -1.241348005934     2.169090141019
O     -4.460768433759    -1.116124782991     2.631730066911
C     -4.243386367564    -2.006742872838     3.735067187928
H     -5.213374122071    -2.215367626833     4.235957899543
H     -3.818773398488    -2.974844316220     3.384542689886
H     -3.556925269395    -1.549654000027     4.483392254594
Pd    -0.491387179304     0.033072601267     0.308708058749
C      2.149173376446     0.009552591708     1.535226337207
O      1.500817736006    -0.532126604664     0.509448681856
O      3.368129808253    -0.115838546070     1.791344100604
C      1.250641766659     0.849445918520     2.516991599589
H      1.892446598713     1.648174457851     2.910900221049
C      0.772419035975    -0.008402708165     3.669892052232
H      0.162979654545     0.595808123608     4.371372630589
H      0.144790848817    -0.836611942984     3.279327372712
H      1.639865794055    -0.433847424632     4.216686887404
N      0.035090284282     1.356320710949     1.827372206638
C     -0.563804791903     2.474439601304     2.077572664246
O     -1.734452782820     2.820527049774     1.521686877788
C      0.005607803185     3.494028188020     2.976691662737
H      0.122069951593     3.056790037636     3.981563625671
H      0.970925654559     3.823810081399     2.557403306003
H     -0.683857677405     4.357504819878     3.029631431407
N     -0.751597914075    -1.376093908304    -1.147419165391
C     -0.594183308986    -2.665121991877    -0.714057905250
C     -0.772940182590    -3.711090036813    -1.598686177200
C     -1.094977111806    -3.463491907179    -2.916467646182
C     -1.226654097298    -2.159092399619    -3.319905046310
C     -1.027105757888    -1.126384080593    -2.382999015376
H     -0.348093461745    -2.860849509072     0.323559198907
H     -0.653208175029    -4.724070650242    -1.251714698433
H     -1.234061715611    -4.281008992308    -3.618764888946
H     -1.460428684163    -1.895122264661    -4.331705736724
O     -1.150635073871     0.099892953829    -2.886951746262
H     -0.849547113095     0.819095065058    -2.277291494608

