# STO-3G

title

0 1
C      0.106917741277     2.469043941047    -1.915047424413
C      1.179442216385     2.070363148475    -2.740377317737
C      1.620942263568     2.910450571172    -3.782827514340
C      0.988481159547     4.151327916662    -4.001746352639
C     -0.077488884302     4.553601864356    -3.172012454997
C     -0.516734956076     3.714136147832    -2.127837870796
H     -0.231558916493     1.808547372573    -1.121131362369
H      1.685970739069     1.125888066882    -2.546844640696
H      2.456309290386     2.606196490806    -4.409729152386
H      1.329509366903     4.801516471250    -4.804196891472
H     -0.558780070755     5.515364380564    -3.334574117212
H     -1.330061627587     4.026799419776    -1.477514569448
C     -2.454479429302     0.320980320995    -0.052606528967
H     -2.158298986586     1.942988265024     0.748123846367
H     -2.547782066667     0.746742343144    -1.054253817234
C     -3.573907946089     0.095128385740     0.681723154681
H     -4.550356741511     0.380211946228     0.303633901985
C     -3.573387231124    -0.558198280724     1.998307536302
O     -2.515706347230    -1.093328327668     2.432674255466
O     -4.789348789478    -0.676245571793     2.695012367946
C     -4.725440348659    -1.356592869986     3.956212644186
H     -5.738564243421    -1.381976459476     4.412168499733
H     -4.378377481984    -2.406308903243     3.822021368350
H     -4.041218977853    -0.826620765501     4.656968102482
Pd    -0.572899003953    -0.220521502925     0.441671833230
C      1.953600607388    -0.226656210886     1.896125601437
O      1.385980012588    -0.819400004102     0.853545652238
O      3.128048623644    -0.395387917850     2.298381538279
C      1.014114645588     0.749588929471     2.702082969573
H      1.660884356892     1.561681811642     3.059362123272
C      0.408440510097     0.048023476170     3.898990741821
H     -0.233865617337     0.749808944644     4.468147800924
H     -0.216400266156    -0.800895312336     3.551862603149
H      1.209327848233    -0.335376584932     4.565078950089
N     -0.117330749840     1.222189697586     1.863623462095
C     -0.644252374660     2.402625390716     1.894652796403
O     -1.728713533220     2.744532639756     1.182741841825
C     -0.081342199808     3.498695529537     2.703558340682
H     -0.085059255399     3.193716383296     3.762639516436
H      0.937477484175     3.708174273769     2.337233702498
H     -0.707881242498     4.401369899668     2.577234246125
N     -0.596033536353    -1.651705590998    -1.033916166057
C     -0.144343496613    -2.879718642816    -0.627639081074
C      0.151345062523    -3.848185183230    -1.568431926347
C     -0.002155466777    -3.587393137365    -2.912273111703
C     -0.459768297766    -2.348854665300    -3.288311110449
C     -0.748213755239    -1.394212893043    -2.282428394416
H     -0.023368789407    -3.090201450859     0.428983560398
H      0.510839513487    -4.809491230572    -1.239783046196
H      0.225603747319    -4.347930678594    -3.654570663201
H     -0.627263686580    -2.108985135923    -4.317510438498
O     -1.229453527254    -0.194063637644    -2.668400302122
H     -0.890971234949     0.155367911356    -3.512941769279

