# STO-3G

title

0 1
C     -0.844106412569     2.626510503471    -1.924910829268
C      0.462022244125     3.105290613511    -2.150133507027
C      0.977898090772     3.160481352717    -3.460004726856
C      0.187908203578     2.738025125641    -4.548207675877
C     -1.121225619336     2.265411352493    -4.325339800263
C     -1.636841529566     2.212428039787    -3.014532976084
H     -1.230572362456     2.564363996844    -0.912590650057
H      1.078452119818     3.415598593079    -1.310101290769
H      1.988340520204     3.524875595514    -3.629781682841
H      0.585430433993     2.781776676672    -5.559899541330
H     -1.736021463564     1.946379217700    -5.164773435791
H     -2.649696088845     1.850029366415    -2.846020970405
C     -2.325007932661     0.394995470633     0.381509431727
H     -2.076753624345     1.911763940922     1.446872504756
H     -2.687584420459     0.809522111243    -0.567092959737
C     -3.264654880802     0.048171984542     1.299933325973
H     -4.317493204800     0.215176328410     1.095792418377
C     -2.982649442007    -0.606903851565     2.586987193182
O     -1.809749959057    -0.972103209502     2.872148054564
O     -4.061950798114    -0.897526598178     3.441816573191
C     -3.725913830882    -1.548290075919     4.675230059126
H     -4.651752240305    -1.720161732260     5.265107710388
H     -3.246306551231    -2.535001688577     4.483618915785
H     -3.039138179376    -0.914843972116     5.281215128281
Pd    -0.319485488222     0.132660723488     0.385641090714
C      2.449879266228     0.420231937727     1.243201465528
O      1.755913798554    -0.042436189203     0.211590787603
O      3.697520245536     0.505201804966     1.323656082778
C      1.569858912551     0.884980744590     2.464831966614
H      2.139901988354     1.673861086896     2.972384903542
C      1.338858501927    -0.252545568582     3.435020104575
H      0.724861527316     0.097186632458     4.289623033154
H      0.791421126442    -1.071008803233     2.922116501613
H      2.308200787245    -0.638816745776     3.812765569859
N      0.234190945351     1.325562841465     1.989303348553
C     -0.439420686903     2.334062890780     2.435511721222
O     -1.672775978718     2.644452158208     2.009753076544
C      0.105842806609     3.263848522296     3.441121662012
H      0.343726924825     2.691473734902     4.352877396023
H      0.998139984267     3.750531467254     3.014145994625
H     -0.654874052822     4.031778340824     3.675328548750
N     -0.506510502842    -0.945039001180    -1.362380312003
C      0.347238562414    -0.539499090158    -2.356086892117
C      0.344265891904    -1.193397697936    -3.573016696454
C     -0.493264109801    -2.262960039601    -3.790283469840
C     -1.322769544328    -2.660199604922    -2.771165610598
C     -1.282128674395    -1.951653120866    -1.541282604028
H      1.006833141684     0.304541473159    -2.199625284373
H      1.009245255702    -0.854371417269    -4.350192307484
H     -0.492113937640    -2.782354060171    -4.744950475232
H     -1.975250913036    -3.498234585322    -2.895120183143
O     -2.085331072573    -2.356004689159    -0.536425076282
H     -2.706391734284    -3.073862017562    -0.747161863976

