# STO-3G

title

0 1
C      0.271486531388     2.715972018382    -1.707991800810
C      1.399239266628     2.350684378850    -2.473382469249
C      1.604409197973     2.929139655416    -3.741528003100
C      0.685293630109     3.872618670095    -4.241948008081
C     -0.438587333470     4.242038712621    -3.474900487581
C     -0.644815106547     3.666247536833    -2.206168466526
H      0.129087353439     2.280963831229    -0.723398972383
H      2.108054085170     1.624797075335    -2.080510768523
H      2.472148108363     2.646313777530    -4.332324908958
H      0.843797833630     4.317695625487    -5.221505338109
H     -1.143653630281     4.974295122659    -3.861031173161
H     -1.499189540856     3.962444716430    -1.602136487208
C     -2.248206042121     0.592541654477    -0.143703875876
H     -1.991210314296     2.101744695960     0.829783412904
H     -2.363416261980     1.188916252217    -1.057606567026
C     -3.378591430081     0.199677708418     0.499627169926
H     -4.359248045388     0.495508944903     0.142825084426
C     -3.370634445060    -0.660571638070     1.691598112597
O     -2.282634603072    -1.160102612877     2.094057275224
O     -4.593572989717    -0.979724728281     2.306715915454
C     -4.515191504420    -1.851512790487     3.443230643669
H     -5.537160254720    -2.027134511969     3.843262198474
H     -4.080647117845    -2.836338896285     3.157384205187
H     -3.899498805435    -1.394598974483     4.250884953846
Pd    -0.386280643683    -0.027247419066     0.391823825317
C      2.112536384527    -0.123678983500     1.874675496309
O      1.524803367544    -0.707056233037     0.835236609211
O      3.293409341010    -0.296470831436     2.251723725582
C      1.182408062271     0.832815240806     2.710965569766
H      1.833035452523     1.621278981421     3.110882049811
C      0.550119054845     0.084387154936     3.866192461105
H     -0.079610625626     0.768514604077     4.469344008685
H     -0.091728122254    -0.730941033553     3.471248886056
H      1.336822554785    -0.352145699316     4.516569469854
N      0.067400557668     1.356858871764     1.879597180272
C     -0.490312658451     2.516742684566     2.005213085035
O     -1.581731313008     2.883269300945     1.317293125278
C      0.045691351109     3.561115937170     2.896232319976
H      0.041354714990     3.182458832641     3.931100160211
H      1.063397269447     3.816248026381     2.556500055086
H     -0.597229885850     4.458989481748     2.831034912002
N     -0.564820850098    -1.515669584980    -0.996968683261
C     -0.435200893630    -2.774658722261    -0.474150933229
C     -0.537163078399    -3.874185810777    -1.304459217233
C     -0.754451839846    -3.710417835272    -2.656186346254
C     -0.861329346915    -2.434331912100    -3.147886401861
C     -0.743748995049    -1.344711818895    -2.263052235598
H     -0.272094404553    -2.905163566415     0.589756636387
H     -0.439146171924    -4.862795510692    -0.887458832157
H     -0.832156450249    -4.570491982327    -3.315825832766
H     -1.015901030079    -2.234902480719    -4.189233472483
O     -0.832082746240    -0.153049444359    -2.851232337263
H     -0.617566344779     0.605271473914    -2.255438380574

