# STO-3G

title

0 1
C     -0.028926878448    -1.157625725402     1.507782119268
C     -1.063026796709    -0.535681282878     2.235679817720
C     -1.260713543503    -0.852836088397     3.593656176278
C     -0.423155568322    -1.795094608077     4.223660592720
C      0.609626679696    -2.419054036138     3.495285414459
C      0.807442927230    -2.101451015583     2.136761880771
H      0.113049132974    -0.904759747397     0.460725043563
H     -1.704120149018     0.194025165442     1.743663421088
H     -2.060136613400    -0.373212137943     4.153737163079
H     -0.574875335676    -2.042083053571     5.272059928491
H      1.255013426935    -3.146522581315     3.982514185762
H      1.603788446316    -2.580486460074     1.572248690492
C      2.038276709031     0.455960107020    -1.632851013256
H      2.024593591994    -1.238872348597    -1.042462731525
H      2.876037927549     0.078298441453    -2.231705998717
C      2.289218227725     1.144044200665    -0.488300580348
H      3.300268956583     1.277230995251    -0.119505614377
C      1.238604346176     1.761376901683     0.336155862346
O      0.029411013414     1.660576709881    -0.014186331422
O      1.615055259832     2.499612673325     1.471161259599
C      0.539209339590     3.029797931434     2.257518882658
H      0.956659606660     3.595778980518     3.117702499244
H     -0.088615128312     3.724648196277     1.654471787299
H     -0.095753802618     2.208941363112     2.660555732276
Pd     0.219966982160     0.253251370579    -2.462732093433
C     -2.195215364362    -1.210827761581    -3.373704417133
O     -1.657765988508     0.013927684303    -3.391494677243
O     -3.143232402030    -1.603846352420    -4.076034670789
C     -1.557850632970    -2.145448571127    -2.301259435876
H     -1.671815863240    -3.168191764058    -2.682346418914
C     -2.323825350012    -2.019740954474    -0.997854972745
H     -1.908176196694    -2.702645651645    -0.230389878925
H     -2.246212182443    -0.977972302893    -0.621298449522
H     -3.394131124115    -2.270477734779    -1.154577983655
N     -0.144153651585    -1.781271789383    -2.009186921529
C      0.747851285545    -2.617158279278    -1.580275290988
O      1.943274116777    -2.238441329491    -1.110604717037
C      0.541355012829    -4.078007451697    -1.579259927169
H     -0.308506057347    -4.320799591355    -0.921613297445
H      0.365245123050    -4.404329025135    -2.617642219475
H      1.450996646026    -4.573514414167    -1.190846908924
N      0.297793749683     2.279195608424    -3.040421465224
C      1.473253407499     2.965418143085    -3.213613500425
C      1.471554646984     4.340708315521    -3.325975434904
C      0.291313165425     5.045059589672    -3.280195292216
C     -0.875291812966     4.344161421876    -3.150166213745
C     -0.839563602273     2.935808332861    -3.047662874450
H      2.414889855026     2.435824630448    -3.274808434053
H      2.405031096372     4.864136417966    -3.450919589055
H      0.284177231719     6.128358728452    -3.366046057997
H     -1.831315090094     4.828213366105    -3.137891202884
O     -2.028604014878     2.383791933821    -2.992104643192
H     -2.042039479505     1.348097684313    -3.160738325711

