# STO-3G

title

0 1
C      1.724768446464     0.865701026971    -1.960364824310
C      1.103031957774     0.806373174098    -3.224320511674
C      1.662633647870     1.497894759354    -4.316383590796
C      2.843705166425     2.247862735507    -4.144497858360
C      3.465659442368     2.305544853872    -2.881479892643
C      2.907217234910     1.612212163073    -1.789279137079
H      1.300293710299     0.313295436906    -1.125130545101
H      0.190638853781     0.227963972518    -3.356391585570
H      1.183415989081     1.453525933432    -5.291609455172
H      3.275557813738     2.782404488728    -4.987525262705
H      4.376995357789     2.884002522025    -2.749327332696
H      3.389786338914     1.653983538975    -0.814845812314
C     -1.086424668277     0.565807471804     0.046062596912
H     -1.692865501296    -0.747266070084    -1.086854461058
H     -0.694368691388     1.218011436638    -0.743706585425
C     -2.375021575636     0.773175470017     0.433606165573
H     -2.967392360750     1.568436895844    -0.004731653833
C     -3.065724595279    -0.043729378117     1.443691156107
O     -2.477298562440    -1.037502475144     1.952014715307
O     -4.377378105486     0.299877955025     1.814337763473
C     -4.990509602926    -0.544801455804     2.798511037750
H     -6.018276965981    -0.178597648848     3.009554865909
H     -5.064091189824    -1.593157213857     2.429400739379
H     -4.412468178647    -0.527493951507     3.750364020710
Pd     0.097150553095    -0.859366074415     0.916989381632
C      1.582418901340    -3.345135454457     1.141727159095
O      1.189186694148    -2.321747608968     1.896784658835
O      2.123249611662    -4.396693595943     1.546933020561
C      1.368270076368    -3.132562469040    -0.402626349702
H      1.226760942872    -4.130205114174    -0.836078057255
C      2.590074090461    -2.493633095526    -1.030336300067
H      2.411935201674    -2.293717265260    -2.106573311803
H      2.817932797734    -1.536197888560    -0.520487610450
H      3.464827008344    -3.169819142427    -0.928938678719
N      0.219688135538    -2.220370129686    -0.645230557772
C     -0.640922903772    -2.324188392898    -1.605545573748
O     -1.653824761545    -1.467676576679    -1.789306662795
C     -0.575103611912    -3.398623810509    -2.612992393092
H     -1.384498520713    -3.248438703792    -3.351245883885
H      0.400441374751    -3.345749505478    -3.122602859032
H     -0.723903474852    -4.368014958274    -2.106877659627
N      0.266125229682     0.298727009652     2.605343487540
C      0.034638372164    -0.343571921370     3.793871254414
C      0.261214425551     0.321485714647     4.984556352543
C      0.728222307685     1.618834727405     4.983920493342
C      0.956634524589     2.227892056255     3.775897791178
C      0.709578621398     1.510475989827     2.590242690877
H     -0.341094248495    -1.360447799231     3.800057109904
H      0.075895334887    -0.188003358005     5.915699598299
H      0.912394045208     2.144241692454     5.917156090907
H      1.323566454303     3.231780711892     3.702970499619
O      0.975436964112     2.182592575530     1.469059988361
H      0.737300467326     1.648564796131     0.673497420490

