# STO-3G

title

0 1
C     -2.863759987694    -0.282872993980     0.067527094709
C     -4.163369618248    -0.791044469641    -0.128993751715
C     -5.190757246855    -0.475694395023     0.783908552635
C     -4.916202547807     0.346929354052     1.895040364988
C     -3.614731839222     0.851805096118     2.093390190051
C     -2.587518304496     0.537935605293     1.181261519350
H     -2.067188841127    -0.512923788841    -0.633849003178
H     -4.371915817069    -1.435027088346    -0.981009284852
H     -6.193220698895    -0.870852238352     0.633665541662
H     -5.707131617820     0.588340214020     2.601861376080
H     -3.398945872889     1.480408003656     2.954221714493
H     -1.580284793531     0.920536245260     1.333042551817
C     -0.088227813504    -0.871586984441    -2.638179189816
H     -0.387312009566    -2.449014523177    -1.780572174116
H     -1.160651949449    -0.791749813751    -2.843069772232
C      0.725929780475    -1.376633729902    -3.598978810770
H      0.319328478585    -1.752036482288    -4.533290985895
C      2.189781293135    -1.416742174910    -3.485610171805
O      2.859430497600    -1.926962389025    -4.423004813801
O      2.822196161671    -0.757800983079    -2.410847322428
C      4.256027346105    -0.725827395246    -2.457904916441
H      4.644608537423    -0.166228067856    -1.580286327595
H      4.674725415198    -1.757479888770    -2.430227687660
H      4.609805490170    -0.209171636218    -3.379178615007
Pd     0.502256968597    -0.049195797290    -0.893783678721
C      1.433444962959     0.082278196414     1.868066330714
O      1.048418734281     0.890762501426     0.888069922671
O      1.758185690232     0.427932803861     3.027634579224
C      1.517959482960    -1.442539748215     1.484396752456
H      1.204919013453    -1.993955955818     2.380825204811
C      2.941589329550    -1.830139081975     1.145649113169
H      3.000737088336    -2.914819688619     0.924458558673
H      3.267408052791    -1.267671886337     0.248451858248
H      3.616859063837    -1.595249544009     1.995027344157
N      0.696944372515    -1.750712710348     0.284348297310
C      0.053021970960    -2.854314651475     0.078117426242
O     -0.577130717036    -3.135424307275    -1.070091491581
C     -0.064040226599    -3.907922743984     1.102814980617
H     -0.653889500873    -4.745964928724     0.687717475680
H      0.945853717993    -4.263686340848     1.361281490225
H     -0.592444734919    -3.490100804423     1.977316153371
N      0.289179851197     1.811407691544    -1.723701134175
C      1.373041674828     2.628386670471    -1.542060053177
C      1.286044036653     3.967555196932    -1.871040945541
C      0.114553309611     4.488247926633    -2.375203561405
C     -0.955146138145     3.644469053296    -2.545294495487
C     -0.810552697772     2.279682042162    -2.190610601572
H      2.297553304629     2.221697335501    -1.148141436537
H      2.142491819130     4.604445338583    -1.722413418126
H      0.042786185205     5.540719694824    -2.636965735219
H     -1.877043755284     4.000121491747    -2.955311971886
O     -1.859477143310     1.452985382026    -2.381683689891
H     -2.738361685553     1.870959301197    -2.390307833472

