# STO-3G

title

0 1
C     -2.982510730043     0.379180692220    -0.169459905249
C     -4.199010187574    -0.157269884170    -0.640817840384
C     -5.134577750772    -0.685864047179     0.271369091201
C     -4.856124541148    -0.667527920542     1.652404169939
C     -3.643297946154    -0.123308479966     2.123398818424
C     -2.703450021260     0.400496117086     1.215038287056
H     -2.271343569035     0.809844527006    -0.867397632727
H     -4.418527285917    -0.152502893663    -1.706367912293
H     -6.071356246218    -1.102780708422    -0.090511478950
H     -5.579330110166    -1.072043805271     2.356835232904
H     -3.431234792778    -0.104908174938     3.189604266591
H     -1.762438684314     0.813378904726     1.570965009452
C      0.026169535542    -1.051515726202    -2.252284930368
H     -1.815253668011    -1.667037374313    -0.520940284717
H     -0.914434840351    -1.601379216910    -2.377567323108
C      0.948308668455    -1.207535125291    -3.239450845850
H      0.720415646250    -1.806408119064    -4.114490735955
C      2.299409455703    -0.625899977525    -3.212179346917
O      2.705824940512    -0.041161334023    -2.171558549244
O      3.136500246739    -0.804356631792    -4.326289932298
C      4.441579654510    -0.216108784919    -4.229937099604
H      5.006007640687    -0.416263294138    -5.166296323378
H      4.369839120685     0.887509508544    -4.097049514993
H      5.012564232242    -0.654806059272    -3.380248949852
Pd     0.388504532379    -0.083472226379    -0.503660165821
C      1.428433278907    -0.229486654332     2.199090270052
O      0.857587816520     0.676304157201     1.406954364777
O      1.923827641445    -0.023856554451     3.328296003348
C      1.452236172601    -1.699456249782     1.603163299334
H      1.356074844918    -2.386231813031     2.453343527576
C      2.746003933986    -1.991666721618     0.879346652788
H      2.716033377072    -3.016171944626     0.455478366042
H      2.886626699776    -1.266006944467     0.053802554643
H      3.601191751407    -1.911496761504     1.582361633835
N      0.359386838250    -1.808476320927     0.613668892839
C     -0.572571706738    -2.696713469155     0.576097035416
O     -1.662741320205    -2.592554897476    -0.206306610650
C     -0.514730358142    -3.931000419832     1.375975099302
H     -1.366848236744    -4.577633951323     1.096424014623
H      0.433938955138    -4.445260268202     1.149918528302
H     -0.595837219381    -3.666046462895     2.443894701066
N      0.453059259164     1.820194416919    -1.343696688248
C      1.288003243690     2.702277530481    -0.704011167735
C      1.266717588528     4.041546963375    -1.045029262879
C      0.412010225402     4.502748256178    -2.021627322003
C     -0.391759938890     3.595361207910    -2.660638987266
C     -0.326438375776     2.238628234642    -2.289404432256
H      1.982047432906     2.354806295035     0.050343073307
H      1.921721394531     4.726182711242    -0.531557561630
H      0.385241016885     5.556384021580    -2.286478832237
H     -1.069631328551     3.883085253176    -3.439025497062
O     -1.126972912235     1.438200271872    -2.990381826851
H     -0.890428744610     0.481063418589    -2.815078198250

