# STO-3G

title

0 1
C      0.156824069019     2.343769098483    -1.961746083815
C      0.739091201120     1.870496092304    -3.154780734725
C      0.571579745047     2.591538402340    -4.353506460998
C     -0.175001054474     3.787086540539    -4.358852835346
C     -0.751825521089     4.262824832951    -3.164189974592
C     -0.585964085505     3.541647057428    -1.964549350199
H      0.288364931085     1.779515989315    -1.040432725486
H      1.325168131916     0.953808472877    -3.141447776982
H      1.024097424193     2.227035942054    -5.273062318451
H     -0.301595702397     4.344889353509    -5.284118635633
H     -1.322695883507     5.188718323946    -3.167219447118
H     -1.025817011183     3.910136405890    -1.040469189693
C     -2.154966844097     0.384157386466    -0.062907562144
H     -1.987169752212     2.000577111410     0.840860781890
H     -2.152750309634     0.849742230288    -1.054869048788
C     -3.322760593541     0.175407657432     0.596586125326
H     -4.266974168184     0.503033631524     0.175232750808
C     -3.407480703703    -0.484307580645     1.907753383750
O     -2.387001291436    -1.055339707045     2.383566349683
O     -4.663926004739    -0.599865145213     2.527143198595
C     -4.682283650273    -1.291653276348     3.783722238421
H     -5.721423971299    -1.311486486117     4.177580669935
H     -4.337325613790    -2.343595630527     3.661902501399
H     -4.037596538455    -0.774050591171     4.529800837724
Pd    -0.311418302122    -0.141755596156     0.517884230861
C      2.274886740253     0.177349945747     1.936926563856
O      1.759354701105    -0.445803721439     0.871889617252
O      3.478901753796     0.247265384042     2.239469374756
C      1.176634439854     0.840616650326     2.836510862531
H      1.687099662774     1.645750861477     3.379547419877
C      0.614783247460    -0.140907364186     3.841133019176
H     -0.132650302435     0.366761762336     4.484640152917
H      0.110881644318    -0.975064825014     3.309216154637
H      1.427614323029    -0.548259337564     4.477926381818
N      0.036209951982     1.297685702933     2.004925039204
C     -0.558436573448     2.441605418288     2.102020618403
O     -1.626223793638     2.777302587662     1.366641913764
C     -0.107328946633     3.495676599085     3.028193767548
H     -0.150894567426     3.101184824131     4.057014767120
H      0.914876967500     3.794986909102     2.741935080343
H     -0.780852381889     4.368909300529     2.940878120804
N     -0.326331812245    -1.584741553426    -0.982191264713
C     -1.447476877119    -2.315279268688    -1.279776473967
C     -1.465911320483    -3.136428425563    -2.388580865429
C     -0.359311861192    -3.241549503173    -3.200637606656
C      0.762440823029    -2.532965665346    -2.863649363828
C      0.753426489863    -1.717507355760    -1.711774962907
H     -2.325195497587    -2.250345822780    -0.648738747628
H     -2.357248815790    -3.696801807064    -2.618291108505
H     -0.370262946611    -3.883838050227    -4.077246968157
H      1.666272596911    -2.592398391128    -3.436665630814
O      1.899076408888    -1.125705316533    -1.462573513716
H      2.019392763759    -0.766215156280    -0.476034030221

