# STO-3G

title

0 1
C      1.705904072422     2.616214358228    -1.031739761653
C      2.931162383220     3.304486486325    -0.821164822258
C      3.291994351871     4.424319906651    -1.599452466146
C      2.428471547435     4.902671103294    -2.604358702017
C      1.206398598860     4.238695838280    -2.827290628502
C      0.857082603920     3.109086121270    -2.057892632170
H     -1.863880714657    -1.580828812430     4.250544222269
H      3.616710202421     2.962686869903    -0.047537663851
H      4.243519385585     4.923076633302    -1.417783970391
H      2.701407444621     5.771516414616    -3.200402869207
H      0.525727951059     4.593377368216    -3.600645328833
H     -0.082568614857     2.601943740014    -2.266966748326
C      1.426381264294     1.986286979272     1.727014575024
H      2.087064284094     1.460084917568     2.429667332804
H      1.851282368708     2.976754253455     1.524133216216
C      0.087106990186     2.218847932385     2.422070211002
H      0.115891411809     2.906522320622     3.270478692557
C     -1.113090745872     2.454597040213     1.578157801262
O     -2.050101267795     3.171548433909     2.025213053479
O     -1.118157238139     1.995563560836     0.246025702685
C     -2.374799038278     2.111497721282    -0.437550358047
H     -2.284201394271     1.692157908806    -1.462247723673
H     -3.164429093296     1.532455969193     0.093827447477
H     -2.685359855089     3.177517211087    -0.521320632725
Pd     1.308415420251     0.910630564669    -0.044235357909
C      0.025635506997    -1.243491651835     1.611497917419
O     -1.105579454109    -0.946962861327     1.062212706733
O      1.192440513736    -1.015578695998     1.149585922029
C     -0.060281226845    -1.853604210166     3.058415186582
H      0.919273801204    -1.720651774282     3.528524616217
C     -0.443177047017    -3.316577109323     3.057623322469
H     -0.466972790802    -3.694194047503     4.100492406790
H     -1.451865047065    -3.428915372966     2.608450745771
H      0.293129287329    -3.903320569874     2.471427205089
N     -1.089789948875    -1.099710411737     3.809119523392
C     -1.104311284561     0.216068221743     3.770751263976
O     -0.127488136699     0.835916114351     3.198108526175
C     -2.227891051653     0.928436388451     4.402528426156
H     -2.044273873184     2.013906598062     4.355112398677
H     -3.141812032815     0.664492126117     3.845213077446
H     -2.297764787435     0.598593440619     5.452902511919
N      1.020143774386    -0.117030623126    -1.901409533767
C      2.027473963341    -0.023867284031    -2.825436695634
C      1.812802625934    -0.426550043220    -4.127433096295
C      0.589834803175    -0.931045331292    -4.509051031438
C     -0.397109639530    -1.021973052148    -3.564065553033
C     -0.136085135615    -0.603333867350    -2.240218998206
H      2.991701679465     0.376420431302    -2.534243840848
H      2.609776699178    -0.341703291799    -4.847753104155
H      0.412977958776    -1.250382529455    -5.532675980657
H     -1.369108721326    -1.411956059608    -3.792068259299
O     -1.178282234313    -0.745888064511    -1.435902883391
H     -1.061545538176    -0.673055985782    -0.401524139003

