# STO-3G

title

0 1
C      0.037786015335     3.023043789777    -0.931747824753
C      1.330170209163     3.611492507347    -0.930428448069
C      1.536608994930     4.939843731819    -1.356243235416
C      0.454659419749     5.718406370651    -1.812921174786
C     -0.835031490811     5.152621096699    -1.831111728906
C     -1.039464850696     3.828124840638    -1.389275505439
H     -2.868323160191    -2.778294110841     2.161418321795
H      2.185406407227     3.024004464461    -0.600868648198
H      2.541228381397     5.360773233266    -1.334900069031
H      0.614066357038     6.742096785532    -2.146261858295
H     -1.681518650321     5.740865016208    -2.184038053432
H     -2.049455996693     3.421099279898    -1.407521678694
C     -1.579900817377     1.675729378604     0.982592392598
H     -2.530346688902     1.166750923095     0.764366361805
H     -1.732448888129     2.757156016240     0.884655584180
C     -1.166754899441     1.432709906928     2.435161413059
H     -1.874202529434     1.806279581478     3.182858613118
C      0.229822839496     1.787305009120     2.819468049375
O      0.430452748318     2.363140157834     3.923949528740
O      1.216990469393     1.790645499186     1.811189648982
C      2.581454729510     1.951808647457     2.235955574944
H      3.200638645604     1.139553686462     1.795776912589
H      2.972469994320     2.925060961199     1.870822655373
H      2.717771524894     1.908009373807     3.341271453169
Pd    -0.227439593399     1.085600754442    -0.466865222097
C     -0.028393654342    -1.629485783832     0.873148089672
O      1.223004389144    -1.464686871271     1.088072513912
O     -0.771305171143    -1.018784181058     0.024595088627
C     -0.730655518810    -2.662648430826     1.823711910588
H     -0.093138243668    -2.754078486600     2.709938399017
C     -0.903322972123    -4.018727342053     1.174771781269
H     -1.345250280009    -4.727008246548     1.905511850850
H     -1.583832651372    -3.922972337798     0.304050101135
H      0.079735663787    -4.408716855235     0.839603323687
N     -2.066930088022    -2.162463242856     2.222639483525
C     -2.248478569432    -0.912982303128     2.598764584778
O     -1.225850505695    -0.126063079103     2.690595960313
C     -3.592908332781    -0.469631242581     3.031968390293
H     -3.500787214716    -0.138607468900     4.079778498229
H     -3.916646799818     0.362683695398     2.393728067959
H     -4.317337642834    -1.299654196601     2.965229031170
N      1.229344670725     0.577122208472    -1.957781004274
C      0.969054781542     1.026782071719    -3.225657263654
C      1.976852627886     1.070540415606    -4.166891443774
C      3.251021616245     0.659858653565    -3.844746919684
C      3.483138861846     0.203331065304    -2.574799603846
C      2.422388567380     0.166471221674    -1.642646098793
H     -0.029059485275     1.360127709306    -3.485087504878
H      1.762531121101     1.435121222276    -5.157984691238
H      4.050645308772     0.693947209687    -4.579910191192
H      4.448697099229    -0.139384909576    -2.260269501668
O      2.778466537862    -0.298779895542    -0.458097542305
H      2.039859896986    -0.649528621251     0.196637006174

