# STO-3G

title

0 1
C      1.329453137157     2.806655666949    -1.292005933754
C      2.687100223226     2.513577960204    -1.537126622530
C      3.459405886285     3.384440107805    -2.333652507156
C      2.882920306026     4.539278931383    -2.898277509950
C      1.523520314073     4.820576132737    -2.665519246712
C      0.744886005792     3.958208848353    -1.863781609851
H     -1.170703780835    -2.539730500249     2.229062722166
H      3.135185874824     1.608368087090    -1.134851799546
H      4.506397930806     3.150879178549    -2.516454635485
H      3.482998010446     5.205847514405    -3.513514473985
H      1.065977188230     5.706372359676    -3.102316444326
H     -0.305934168284     4.192128286198    -1.700739214391
C      1.055251681746     2.574997368311     1.682783523556
H      1.107985416177     1.790564307951     2.429839208927
H      2.013274813340     2.905480725299     1.296537447959
C     -0.116634258303     3.262239597550     1.380304496962
H     -0.077328939794     4.118567402458     0.724521117710
C     -1.394928400786     3.078003635705     2.090069558898
O     -2.411207702518     3.685135529309     1.660307452244
O     -1.431522508370     2.337803875364     3.285324756075
C     -2.733687433827     2.110079873147     3.840125311021
H     -2.637021132123     1.506225464896     4.767918561697
H     -3.228867104421     3.073005371853     4.100182752082
H     -3.371214436412     1.543098202240     3.124346020214
Pd     0.204777318787     1.599409060400    -0.172299757693
C      1.356839315860    -0.799668701618     2.348895554855
O      1.308569741456    -1.338274417287     1.142961071951
O      2.292873539477    -0.147816650441     2.865919004958
C      0.010352883494    -1.006080827826     3.134482871496
H     -0.285153233417    -0.017319614991     3.499619301157
C      0.165319015972    -1.929661585953     4.322280356219
H     -0.805456523314    -2.017864630522     4.852264296630
H      0.478287674083    -2.934263271215     3.971599904205
H      0.928086007935    -1.528264189613     5.021293875489
N     -1.038945758598    -1.536511245437     2.260874924681
C     -1.490883345686    -0.818418447372     1.221820214107
O     -1.227509781425     0.401622951190     1.031581743243
C     -2.364453383242    -1.522105410719     0.263907484385
H     -1.777973341223    -2.345212405296    -0.179923403985
H     -3.229555421651    -1.915571396785     0.823308859906
H     -2.691246589560    -0.816587245183    -0.519770649807
N      0.207079064294     0.318269073487    -1.803325282681
C     -0.678390852825     0.529131877944    -2.823700741772
C     -0.552323874340    -0.171461457120    -4.003708603016
C      0.469204899533    -1.079145270014    -4.173575047101
C      1.348725605482    -1.273061504850    -3.142147103441
C      1.196591156791    -0.546554175690    -1.937438849921
H     -1.482535843400     1.244974287812    -2.699442406473
H     -1.254671759882     0.002442782868    -4.802150764024
H      0.576566007054    -1.627647501681    -5.105574685102
H      2.168331381661    -1.959395962116    -3.214909594811
O      2.086305437303    -0.784825089559    -1.029047642449
H      1.803897172645    -0.988695793263     0.190955827999

