# STO-3G

title

0 1
C      1.561239549840     3.182829015194    -0.471726608445
C      2.848190574307     2.806193519293    -0.907855216581
C      3.756526994678     3.793248806958    -1.342997047666
C      3.384281705216     5.152132771845    -1.355246459235
C      2.094339277547     5.523103162015    -0.931165899378
C      1.180744296525     4.542233920121    -0.487955390524
H     -1.724899524485    -2.636800644162     0.936944389428
H      3.128592817499     1.755678842870    -0.925513551421
H      4.748107487943     3.495718117760    -1.678667212241
H      4.087846759363     5.909052214128    -1.694336840118
H      1.795479621715     6.569606836017    -0.942026095767
H      0.185735180214     4.848721415567    -0.168870987585
C      1.276803670206     1.728230719967     2.105515269450
H      1.180555858069     0.697154374422     2.430672531227
H      2.275591811685     2.035209047355     1.818378154133
C      0.248074479358     2.657206798761     2.267957751465
H      0.443170441265     3.699314175259     2.065837795208
C     -1.017758532697     2.379602910076     2.969717838637
O     -1.871735717564     3.300544003002     3.056200536152
O     -1.193669162711     1.149932289286     3.629402449920
C     -2.435840886960     0.981333029066     4.325400634193
H     -2.465707954522    -0.031413810524     4.782648810322
H     -2.538282627607     1.734816410632     5.138936311138
H     -3.297134144747     1.072699933850     3.626517790535
Pd     0.236045716319     1.824057143078     0.133832949489
C      0.635229671949    -2.974366181599     0.176608718123
O      1.678776738393    -2.719044144256    -0.615071067507
O      0.019331332662    -4.062687980135     0.228970246284
C      0.167960424086    -1.798781983324     1.098503578085
H      0.616842440877    -0.856547697947     0.782919309295
C      0.498654122204    -2.074582155073     2.550675634212
H      0.072587410907    -1.276808809987     3.192609063885
H      0.041363680385    -3.040518093595     2.852908601862
H      1.597584226207    -2.122966559829     2.692685693554
N     -1.291431847921    -1.718511680628     0.983358766625
C     -1.977197456162    -0.591582720559     0.763849109121
O     -1.493081540896     0.576805770991     0.689396703974
C     -3.440822715631    -0.713496833325     0.608025677574
H     -3.760491730318    -1.763867116396     0.724381636050
H     -3.912300375620    -0.087500567380     1.381993468238
H     -3.705367102460    -0.347359632142    -0.398534173176
N      0.166675512151     1.161089927837    -1.833055688179
C     -0.605895101249     1.669982139154    -2.837893261322
C     -0.580764721490     1.083352515452    -4.086247476768
C      0.222936299248    -0.009404187989    -4.332803791478
C      1.004903532548    -0.491368714434    -3.315015754668
C      0.965056295200     0.135579733232    -2.047434129418
H     -1.246857025486     2.522770116559    -2.647268395979
H     -1.199002155131     1.483889599106    -4.872590584269
H      0.240838086886    -0.475118372498    -5.314635729512
H      1.656162492977    -1.331438073704    -3.452319184333
O      1.738034279770    -0.339556654437    -1.121034823746
H      1.827382282485    -1.673904154103    -0.845979666296

