# STO-3G

title

0 1
C      1.323915137311     2.700190140793    -1.341509680812
C      2.603879713375     2.196594343247    -1.654967495378
C      3.448088241830     2.925676092873    -2.517153864631
C      3.019780913935     4.148563421813    -3.071798363741
C      1.740998881820     4.644992418627    -2.757773507635
C      0.889250922513     3.924066907306    -1.891982702492
H     -0.267017249207    -2.554958612151     1.761893336431
H      2.941674882195     1.253680973055    -1.230025543291
H      4.436043315279     2.534976769881    -2.752588760311
H      3.675182783040     4.705841221561    -3.737334854036
H      1.403156419186     5.589813156678    -3.179696542762
H     -0.097454417831     4.323833728209    -1.664059123083
C      1.229827561088     2.568475640124     1.621005716587
H      1.307576536734     1.814958689153     2.396048017803
H      2.167118107720     2.842842135729     1.151766811936
C      0.064448090706     3.300867329503     1.413419104487
H      0.076237898643     4.147429383098     0.744313635984
C     -1.147582300844     3.175837385222     2.243123726524
O     -2.164079220746     3.846618802826     1.923001989105
O     -1.108358944589     2.418990136443     3.428369026546
C     -2.353087556471     2.287815565698     4.127446021585
H     -2.201010686126     1.664138926105     5.034421524301
H     -2.734565392359     3.283393895881     4.449161113512
H     -3.112787099576     1.786986446094     3.485347703476
Pd     0.155544772872     1.625423178404    -0.135485275593
C      2.031132135968    -0.538934678119     2.119476453772
O      2.061645174126    -0.544676990339     0.788836746918
O      2.966211087129    -0.112358952055     2.830198303866
C      0.694206384110    -0.977119354163     2.829504372265
H      0.278866044416    -0.052939136872     3.250687361259
C      0.945473482007    -1.941623171252     3.968986309363
H     -0.012717176827    -2.176832338635     4.477100866524
H      1.380733257935    -2.880195820203     3.569635706785
H      1.644064168424    -1.495680631077     4.707322325462
N     -0.334117540493    -1.566032449992     1.969042990547
C     -1.224884358265    -0.824751736641     1.286010910620
O     -1.191706926506     0.440599883176     1.217439329271
C     -2.362585784989    -1.523672773490     0.652496457676
H     -2.259126140856    -2.616270246335     0.767853394673
H     -3.281524292617    -1.174987852614     1.150522116207
H     -2.386073861723    -1.257382184557    -0.416699848638
N     -0.320716442103     0.460150031851    -1.799172754539
C     -0.935931982650     1.045632633255    -2.872748140631
C     -1.279529470756     0.288836430037    -3.972303992654
C     -1.000412873984    -1.058095748792    -4.010908720891
C     -0.377508565422    -1.624916283381    -2.932081345323
C     -0.025412108549    -0.826254133792    -1.818436893449
H     -1.173099396805     2.102315033916    -2.850604780356
H     -1.766692663971     0.761008177601    -4.809573042791
H     -1.267113460259    -1.657277631310    -4.877471871218
H     -0.125890091050    -2.666265259521    -2.903046420954
O      0.562745644971    -1.459546044367    -0.856875161601
H      1.301132211141    -0.958685157492     0.094902511195

