# STO-3G

title

0 1
C      2.345498158015     0.586492426539     3.200028953417
C      2.433549665269     1.816915598592     3.887543081209
C      3.387507153820     1.984727715090     4.914506108600
C      4.252195857801     0.928987210444     5.260219917732
C      4.165121047516    -0.295420399234     4.569129619575
C      3.219229325394    -0.467150549406     3.537316531017
H      0.723755869286    -1.614412333415    -0.038383507956
H      1.773314451532     2.645854172304     3.636487242917
H      3.448948093944     2.935130275765     5.441189447606
H      4.983852320314     1.057690916767     6.054485786490
H      4.832651581098    -1.116186375520     4.823878144898
H      3.179291513398    -1.410446516581     2.996836563677
C     -0.279130066200    -0.868221403164     3.065899020776
H     -0.819585234611    -1.540555846010     2.406178571015
H      0.487757381382    -1.340625289578     3.668240237347
C     -0.696923032202     0.441861353273     3.298140468407
H     -0.210473949659     1.016107764228     4.071027111885
C     -1.943608837225     1.028244591273     2.771788124989
O     -2.791225610777     0.296197495762     2.191856457592
O     -2.210296662199     2.380440465786     3.046162902966
C     -3.440801668195     2.893877038282     2.516698030405
H     -3.540492398707     3.966803849171     2.788622617318
H     -3.456864056451     2.813231661510     1.405804091769
H     -4.313455686910     2.346146152203     2.940149172382
Pd     0.999670475270     0.415433202292     1.731914363979
C     -0.223604581777    -4.002483356313     0.784515456691
O      0.840793828564    -3.564805264464     1.512463328074
O     -0.910290148164    -4.972028744447     1.134429167860
C     -0.583898476570    -3.190050476309    -0.513108781272
H     -1.650467979080    -3.361515576945    -0.684733922108
C      0.186245368490    -3.676088381763    -1.721372536255
H     -0.136409714751    -3.108453253650    -2.618100236241
H      1.271799152550    -3.501490236225    -1.566195010449
H      0.003164855583    -4.758137700958    -1.885791146064
N     -0.267141772552    -1.775732627259    -0.314787089375
C     -1.030210906752    -0.683455698064    -0.282623321038
O     -0.601724783690     0.423067412168     0.194983033757
C     -2.398157831526    -0.743553056893    -0.825041983282
H     -2.342476136669    -1.105622256293    -1.864970839888
H     -2.989809690208    -1.417713569529    -0.183519385023
H     -2.837651559308     0.269684445871    -0.791550337015
N      2.637675928492     0.386749907064     0.444555946824
C      3.390695340608     1.492625584108     0.165819396794
C      4.586344668955     1.361088236815    -0.509550074171
C      5.030006588819     0.120896895057    -0.913335960860
C      4.259841168007    -0.975125334376    -0.626943784707
C      3.039810003425    -0.813264039689     0.072307558624
H      3.047751768682     2.471205099426     0.480519617634
H      5.174460763649     2.238231702963    -0.721479335753
H      5.970267651804     0.014322702896    -1.447379477552
H      4.546926755137    -1.965298229264    -0.914618200598
O      2.368548287169    -1.893898070807     0.308513153128
H      1.479197057208    -2.887595035864     1.100596443949

