# STO-3G

title

0 1
C     -0.209034601206     2.771084414527    -2.185214590598
C      0.622091551329     3.857573502617    -2.537589232749
C      0.448221952873     4.513035038829    -3.776137417999
C     -0.552501729060     4.091525572107    -4.670899135785
C     -1.374679182080     3.000287747609    -4.327094820246
C     -1.199692100244     2.337509303100    -3.095532517018
H     -1.518427497024    -1.684650540735     2.967640698284
H      1.419053310255     4.194891109895    -1.877212123787
H      1.096586425988     5.347735533202    -4.036454153565
H     -0.685514600518     4.599004371129    -5.623607223901
H     -2.143468976667     2.657191790224    -5.016858178553
H     -1.824658724088     1.478930117757    -2.857466829801
C     -1.339511258490     3.392907084003     0.539573097490
H     -1.941606202446     2.923852737843     1.312290571600
H     -1.868907995092     3.804275289361    -0.311680112804
C     -0.001012662022     3.702186462179     0.775596813402
H      0.537027997470     4.323762112270     0.078465850177
C      0.691358983136     3.469937600851     2.057026278006
O      1.918026984595     3.743253903443     2.130040536847
O     -0.050765586540     3.111984153998     3.196661600302
C      0.717830936650     2.790297058185     4.363557868011
H      0.031681028571     2.494558131639     5.186074518364
H      1.401032445952     1.934647984978     4.159729805686
H      1.312415795154     3.668685885682     4.702540801642
Pd    -0.084809666671     1.782964298791    -0.450069062407
C      0.733974829173    -3.014552773385     2.308910731891
O      0.059519226766    -3.201375231106     1.156705721611
O      1.391042830902    -3.908876747178     2.870176754716
C      0.597399229858    -1.570859678941     2.921568533252
H      1.288332369749    -0.897210626005     2.401521910124
C      0.877473921959    -1.525093801603     4.405682333085
H      0.740983643923    -0.489962690142     4.778570490711
H      0.165761312294    -2.193168934880     4.932424192303
H      1.916446862668    -1.856590725344     4.609938460242
N     -0.762386247220    -1.068654659663     2.693939377106
C     -1.023844482811    -0.045478643595     1.874189983154
O     -0.140010272558     0.766306614966     1.469400328237
C     -2.431082508441     0.096743118941     1.449378184122
H     -3.021899423573     0.403949362842     2.328326895564
H     -2.501739815130     0.817584645478     0.625842048407
H     -2.771901440949    -0.888043672125     1.079379892458
N      0.822082017529     0.213755817593    -1.480684863620
C      1.836440973270     0.458054993815    -2.370036776652
C      2.512803452091    -0.587257353962    -2.960180521977
C      2.181169521935    -1.889574161636    -2.671455598507
C      1.165063897146    -2.120881014825    -1.785847982906
C      0.480429341943    -1.030987191806    -1.189817354500
H      2.131049949625     1.474145795651    -2.597842128294
H      3.311723513284    -0.377978662752    -3.652466191192
H      2.713708772094    -2.715797495252    -3.135293601390
H      0.863902345118    -3.118466239705    -1.530891930974
O     -0.465618480515    -1.336476627396    -0.365503722337
H     -0.224011769710    -2.377176567745     0.527660597398

