# STO-3G

title

0 1
C      0.578003064676     3.494239541551    -0.525906845704
C      1.986076511043     3.472279642873    -0.619354314650
C      2.684046638699     4.638110827786    -0.995493296385
C      1.984640486948     5.823596419684    -1.296282589543
C      0.579032655061     5.836099107587    -1.226630066368
C     -0.126711876972     4.674626598120    -0.843712264525
H     -0.522647374481    -2.915275653874     1.579021678697
H      2.529956541834     2.548796568886    -0.435130442518
H      3.769767231429     4.611151731158    -1.064588439569
H      2.527184491884     6.719223379026    -1.590003890941
H      0.028955642241     6.742962949124    -1.470525735447
H     -1.213869715610     4.705366231266    -0.812948370757
C     -1.393885114734     2.841693353893     1.701373138846
H     -2.295273755485     2.255601161922     1.857044864174
H     -1.514747562372     3.828076133579     1.272334458773
C     -0.171545414033     2.454366990960     2.251813345118
H      0.680764083247     3.115337805122     2.182361010023
C     -0.018511274699     1.356864817609     3.223728637781
O      1.107086285733     1.191293278600     3.760657914766
O     -1.158734719402     0.676204847130     3.690096130755
C     -0.921508095885    -0.368498427080     4.644561776012
H     -1.892080300302    -0.807736200060     4.958993639457
H     -0.308161922473    -1.182132181042     4.196182089567
H     -0.411243036993     0.027298152158     5.552018562690
Pd    -0.335239282486     1.815122812984     0.039698120473
C      1.331935127497    -2.681773738175    -0.218916565580
O      2.088573004023    -2.212221047623    -1.215796252585
O      0.931239978911    -3.860765283481    -0.112200762421
C      0.983209335513    -1.646101326928     0.903305851232
H      1.042307292005    -0.625979362614     0.519673286544
C      1.930745370813    -1.801913918273     2.072818638572
H      1.686288866331    -1.069239031020     2.861640113021
H      1.833674616478    -2.823944143213     2.495100614289
H      2.976922644812    -1.635576630957     1.742562967353
N     -0.376832546423    -1.930949858518     1.371174903121
C     -1.445832085410    -1.149916985135     1.153118875667
O     -1.444974345604     0.030756462928     0.701521204839
C     -2.748455259148    -1.742521255565     1.512964712599
H     -2.714690358609    -2.004464346575     2.583457792066
H     -3.547198837500    -1.006387338973     1.320161198179
H     -2.896726425052    -2.646686536896     0.896248538146
N     -0.213170940672     1.266526762947    -1.957036543304
C     -1.115943806843     1.638097183459    -2.912601857966
C     -0.947417198189     1.221015189982    -4.216388677404
C      0.127882976710     0.432994127218    -4.566970318478
C      1.029304041306     0.084777317666    -3.594869773985
C      0.835961409783     0.537509937258    -2.267835955006
H     -1.968453194584     2.249443390040    -2.641183502936
H     -1.666705448036     1.511356536591    -4.964138404178
H      0.260991038980     0.099216448756    -5.592647183702
H      1.889273505292    -0.516615465073    -3.812136006368
O      1.722088834007     0.198530728663    -1.384916935657
H      2.069442944771    -1.143209275072    -1.313410682033

