# STO-3G

title

0 1
C      0.749191555138     3.062742401904     0.288529366949
C      2.154901021663     3.125403630099     0.205240583395
C      2.798193060180     4.377132902821     0.107325454638
C      2.044186527129     5.566533172010     0.077834561625
C      0.639328890163     5.500481318613     0.146182221347
C     -0.010966543504     4.252291142593     0.249742137557
H     -1.150634159240    -3.500615581541    -0.718691661856
H      2.747905106465     2.213200442992     0.201849241707
H      3.884117077303     4.416906231702     0.047678406594
H      2.544781949072     6.528825533436    -0.000574181513
H      0.047531823276     6.413511691955     0.121265325648
H     -1.098004417980     4.221311374018     0.309654316827
C      0.463933310749     0.825391703695     2.458913414585
H      1.402158984878     1.332226831554     2.659731174670
H      0.520632096988    -0.248062448698     2.306211606727
C     -0.777192288627     1.446540298943     2.602158199848
H     -1.674898120830     0.851755923057     2.510873177621
C     -0.963081304275     2.815557730644     3.109302921552
O     -2.110278538871     3.329731591370     3.049490974730
O      0.152332072037     3.556282840560     3.536627211832
C     -0.100055060358     4.918638477493     3.906567584473
H      0.853770781609     5.396507232621     4.217898814968
H     -0.506946254857     5.493626203878     3.044376974128
H     -0.813383678306     4.972449286182     4.759935727016
Pd    -0.193000036491     1.317666227548     0.383877114358
C      1.284083801462    -3.788242689163     0.160295398867
O      1.887664992428    -3.076641544085    -0.807141523953
O      1.575950590100    -4.966995642934     0.434969021110
C      0.133347767361    -3.007714255449     0.890108704828
H      0.517373713630    -2.039806348003     1.220598263515
C     -0.454784538889    -3.755491901783     2.064458451013
H     -1.249985196190    -3.142738698387     2.536708771502
H     -0.898336373758    -4.707283817491     1.705295318054
H      0.334628553269    -3.975789711262     2.812002848325
N     -0.947897073615    -2.746030189419    -0.075175891385
C     -1.548982632981    -1.557315019491    -0.197410105841
O     -1.354312065696    -0.585248474112     0.590254043087
C     -2.515193739599    -1.379670150081    -1.301436768678
H     -2.589716822033    -2.299539112434    -1.906711791310
H     -3.493004153690    -1.143204151076    -0.851150062756
H     -2.165712105700    -0.543943237565    -1.931087378876
N      0.136697282154     1.137802131339    -1.659334714880
C     -0.220467617413     1.995717552021    -2.661114708998
C      0.118661335669     1.704749567241    -3.966237593545
C      0.831346574015     0.564501646407    -4.271224473334
C      1.203316453214    -0.269409743758    -3.249022816309
C      0.851013834333     0.056216788709    -1.918376468627
H     -0.788998570227     2.889313050418    -2.431420096098
H     -0.174449752368     2.380960159663    -4.752496095978
H      1.100155042451     0.336074054469    -5.299263611738
H      1.772765768672    -1.161005560781    -3.423014832975
O      1.250781933691    -0.730867504474    -0.981186206116
H      1.624396926870    -2.048252366997    -0.926289612064

