# STO-3G

title

0 1
C      0.819607125914     3.065208988014     0.106323969182
C      2.202345956403     3.057139164350    -0.167197565522
C      2.877482603039     4.271073063443    -0.412791921080
C      2.175740213632     5.492450139931    -0.399751469637
C      0.791717338016     5.496152349765    -0.140385151254
C      0.110307520465     4.286027743735     0.111237596258
H     -1.378919294830    -3.421281042895    -0.420635641987
H      2.749674924062     2.117478879094    -0.203646691818
H      3.945844765552     4.256652535476    -0.619615890531
H      2.699954631854     6.425776260734    -0.591722638688
H      0.240309740895     6.434412078515    -0.130575717199
H     -0.958628877330     4.309406775249     0.318492600328
C      0.740976445573     0.941255822272     2.405252517990
H      1.713569949784     1.419388092102     2.458656471641
H      0.742848506117    -0.138888666485     2.294138308813
C     -0.450159408835     1.614908497389     2.678557011983
H     -1.370717817868     1.051098698511     2.733936040757
C     -0.523297184533     3.010393940626     3.140104162591
O     -1.650827009853     3.566178446981     3.201482458453
O      0.662095324356     3.725825622805     3.381670719579
C      0.505022665164     5.111505909668     3.715917709297
H      1.506602611917     5.565387345495     3.876894046664
H      0.006557760162     5.663979779227     2.887772023429
H     -0.087024138525     5.229329554637     4.651624671732
Pd    -0.163686708705     1.367645734332     0.412894420474
C      1.110339435501    -3.822662183136     0.337168650120
O      1.627286197881    -3.153335474205    -0.707353570863
O      1.439605198617    -4.983706662856     0.641828651402
C      0.016169563654    -3.018924938762     1.128492770194
H      0.449887998323    -2.074116352006     1.467267435895
C     -0.549552388373    -3.771553443520     2.310500470027
H     -1.304767106324    -3.143385482853     2.826157714247
H     -1.037928960613    -4.700874057401     1.951060547375
H      0.260825679528    -4.032464550933     3.021785806798
N     -1.093713349796    -2.690843697122     0.220714676018
C     -1.619320636463    -1.467124844335     0.104528770391
O     -1.330112486915    -0.492584835392     0.858750335698
C     -2.610191419311    -1.278198550535    -0.972221888408
H     -3.446683238324    -1.973370191686    -0.787107292623
H     -2.961362860685    -0.232823476515    -0.958022739851
H     -2.120688226524    -1.508003208760    -1.935138875897
N     -0.077108263209     1.059079619690    -1.640151874635
C     -0.527791469029     1.862844325950    -2.648925814803
C     -0.349770274984     1.479600362655    -3.962137083477
C      0.295455990248     0.300713642993    -4.270534557404
C      0.763671523216    -0.478459643686    -3.244636343485
C      0.577184183007    -0.058205862750    -1.906993760044
H     -1.043927617450     2.786689184342    -2.415059089613
H     -0.715954433740     2.113850196242    -4.752738587915
H      0.437703437394    -0.000137418238    -5.305213676834
H      1.288924059735    -1.396090143353    -3.422836962011
O      1.063482985760    -0.797720778251    -0.971570900790
H      1.379879303846    -2.124603591382    -0.856072385865

