# STO-3G

title

0 1
C      1.301824668429     2.360807602454    -0.071333589508
C      2.670733012328     2.540832246314     0.223658877724
C      3.349295128889     3.683386384006    -0.249831715820
C      2.666954438033     4.645730940596    -1.018779283615
C      1.303673547822     4.457253698717    -1.315573302419
C      0.617102854568     3.316267092155    -0.848012000612
H     -3.542509389427    -1.733036587165     1.086761479542
H      3.214447908631     1.810585013533     0.820261776362
H      4.404766277358     3.814831691488    -0.019265572800
H      3.190612497095     5.524566263666    -1.387680678859
H      0.768655667632     5.188543290871    -1.917837192382
H     -0.429625246715     3.178108034022    -1.104572543253
C     -1.185506354649     1.923329422749     1.787231003781
H     -1.360353976108     2.845643015075     1.244127405402
H     -2.000539805496     1.208346315189     1.745560974703
C     -0.118228481679     1.751515837521     2.662486681434
H     -0.052394184335     0.845836892505     3.249640136556
C      0.828198041577     2.815561060730     3.038268692685
O      1.830919758889     2.510029186487     3.735214624554
O      0.626612456921     4.125442091947     2.572003691628
C      1.661105873918     5.069485803714     2.878916160014
H      1.394729092198     6.057616665597     2.445959557804
H      1.776335226583     5.188225422489     3.979899399288
H      2.630774191162     4.750817528489     2.434535781072
Pd     0.382230782339     0.743224570595     0.644454406185
C     -2.943564760130     0.454006917138    -0.541719195291
O     -2.239748360743     1.339456671505    -1.245531030748
O     -3.973595722714     0.720129837866     0.116151307914
C     -2.363524077258    -1.004262676379    -0.504577769514
H     -1.292926619858    -0.996128250109    -0.707637343410
C     -3.035910364898    -1.910030001822    -1.511183975662
H     -2.606585465467    -2.930655435942    -1.437238010980
H     -4.123659980896    -1.962716824415    -1.296346556754
H     -2.878167855329    -1.521892247932    -2.538967951982
N     -2.575592029726    -1.572734783324     0.829500405019
C     -1.620868050670    -1.582807762703     1.773250148521
O     -0.465216032477    -1.074877399536     1.656545588740
C     -1.940264160145    -2.241813787616     3.055110123637
H     -1.186149365857    -3.028810931548     3.223758839796
H     -1.886719754694    -1.478684888243     3.848579113111
H     -2.949198232596    -2.691510055336     3.025920542686
N      1.216197522004    -0.324061477366    -0.914705193101
C      2.341290881010    -1.060355434204    -0.667416380988
C      2.982129789382    -1.709426144637    -1.700222196569
C      2.499782009937    -1.626578595777    -2.987110160351
C      1.366674155466    -0.891887326473    -3.214735183686
C      0.724607538464    -0.229970478849    -2.141506786089
H      2.728149898655    -1.130122220292     0.342598468340
H      3.869925715926    -2.284763883770    -1.495296223140
H      3.004944407032    -2.135593031182    -3.803684320385
H      0.944210782673    -0.790171180858    -4.194155277787
O     -0.339934882315     0.419282224944    -2.454643243571
H     -1.350142249304     0.954290949713    -1.750699815305

