# STO-3G

title

0 1
C      1.054557979438     2.974089713679    -1.433482453148
C      2.376731137126     3.469596954836    -1.414353603477
C      2.804867439858     4.382569458090    -2.402749618358
C      1.920790354976     4.804987184063    -3.412836210366
C      0.604705333010     4.302288166814    -3.437398375628
C      0.173558163011     3.384233933525    -2.458463467456
H     -1.607470000249    -2.400634334914     2.448208270723
H      3.085012489063     3.148890959543    -0.653395735278
H      3.825849639771     4.759245062323    -2.379139432562
H      2.251467328890     5.510295485678    -4.171982870152
H     -0.085209228824     4.614768085923    -4.219197319286
H     -0.837907189198     2.985673538752    -2.503696151060
C      1.088277441732     2.915808841547     1.692782970079
H      1.150926824126     2.236750841318     2.538742713246
H      2.032913313547     3.285423631931     1.313397790770
C     -0.117541269011     3.494390985203     1.298449196847
H     -0.114910432403     4.280430616604     0.558937511465
C     -1.390897678561     3.341939891367     2.025486440967
O     -2.411619264636     3.926203614535     1.579616998785
O     -1.431312169297     2.610966909392     3.225920754621
C     -2.667603220308     2.663426249072     3.952542856480
H     -2.582117127825     2.040979397766     4.869569374360
H     -2.898680173662     3.707789326339     4.262379905813
H     -3.509676462781     2.268298086173     3.340530837009
Pd     0.372555754545     1.700667230194    -0.062116321104
C      1.572443139196    -1.660002206371     3.193832921743
O      1.724245990569    -0.323783625077     2.985653029573
O      2.268717356211    -2.301395636892     3.990000704247
C      0.500251177163    -2.399194519498     2.312921556255
H      0.364175484443    -3.368678008881     2.800108910509
C      0.997142116796    -2.641473390596     0.901734364490
H      0.223304966031    -3.188975427840     0.323298619003
H      1.199886986071    -1.678187552886     0.397081410592
H      1.927059188576    -3.246774990546     0.921680546740
N     -0.842135513054    -1.772958754671     2.237549807773
C     -1.144784286216    -0.545098798705     1.804735136886
O     -0.259445496087     0.338018787890     1.568536507963
C     -2.572341031537    -0.197129067708     1.736852896641
H     -3.060782064751    -0.921800144762     1.061450142162
H     -2.990617387525    -0.268253165179     2.753054096792
H     -2.684554217436     0.817612801697     1.320847418764
N      0.555811290658     0.203711077948    -1.465480107644
C      1.670946983417     0.018864185032    -2.236599127596
C      1.719339381852    -1.012144170539    -3.148589558646
C      0.647045683495    -1.858507055624    -3.313454475197
C     -0.471283324562    -1.655678797078    -2.552443666722
C     -0.517974672720    -0.590262973570    -1.616436459577
H      2.531505384538     0.664266436847    -2.110977552416
H      2.607485286252    -1.151402839848    -3.742601344780
H      0.685980712276    -2.669560814839    -4.035668305117
H     -1.340625892079    -2.275257522251    -2.640372797053
O     -1.596993890010    -0.458235314752    -0.954113706698
H      1.028964489102     0.048319375783     2.341443054167

