# STO-3G

title

0 1
C      2.466134930132     2.061987655901    -1.504747341630
C      3.800975657504     1.669448552283    -1.738878192268
C      4.676985143456     2.540807831599    -2.418812253801
C      4.225244136317     3.798067534122    -2.865985094268
C      2.893357359401     4.186226370511    -2.626730252817
C      2.007869112509     3.317946541605    -1.952467261809
H     -0.238912983825    -1.968615240264     2.819873546440
H      4.165461236094     0.707500744660    -1.383873047707
H      5.707706025827     2.237614789746    -2.590502615439
H      4.904963068101     4.469316606110    -3.385609445037
H      2.540635370381     5.162318290267    -2.953347161822
H      0.985616529013     3.636205881258    -1.762552741336
C     -2.700359478515     1.332363428447     2.512539858889
H     -3.627347980532     1.391933303833     1.947767730146
H     -2.744266894655     0.882804788155     3.498943799839
C     -1.522751764495     1.779964557332     2.028089179708
H     -0.616283140130     1.663134292838     2.606196251218
C     -1.350338141160     2.417860299414     0.717460145876
O     -0.183864045443     2.509382408529     0.246623481900
O     -2.473182418102     2.814751554681    -0.032301042815
C     -2.201909318649     3.450047504067    -1.289400099060
H     -3.163095467331     3.717676356816    -1.778656758481
H     -1.615337209199     4.384553250910    -1.141261030525
H     -1.649248722329     2.766664395008    -1.971504791226
Pd     1.340911133918     0.795154820190    -0.475115803303
C      1.341567731875    -0.130276827425     1.965004088154
O      0.473612860209    -0.610011601347     1.102689450577
O      2.257526877539     0.683942343507     1.564054213541
C      1.204219355946    -0.566939222079     3.426575714561
H      1.146791711456     0.325939449740     4.060610704157
C      2.368757887760    -1.415830762044     3.887499877955
H      2.238957911463    -1.663566864774     4.961491873198
H      2.388668057343    -2.360500147389     3.306570047045
H      3.324430729072    -0.868041841134     3.753001768613
N     -0.022194872081    -1.339371439867     3.585880787877
C     -0.994784395295    -0.966494677768     4.460021843520
O     -0.931154193021     0.019890744154     5.229711455864
C     -2.196368780283    -1.826940477995     4.460826510798
H     -2.910285566931    -1.439065793138     5.207995943927
H     -2.632352817716    -1.800521695960     3.447927167438
H     -1.880096763598    -2.851720795481     4.721391996971
N      0.013920041235     0.402470694951    -2.029897949432
C      0.274312297490     0.720625567379    -3.338762562291
C     -0.698576038482     0.544623231822    -4.300970451344
C     -1.931163431651     0.033129842203    -3.965719468785
C     -2.160100485146    -0.298663305627    -2.658100830858
C     -1.143058973009    -0.108285521758    -1.698796264251
H      1.242090033014     1.107242040240    -3.630437985829
H     -0.483065009513     0.802653027443    -5.325230402560
H     -2.699931265757    -0.110459199774    -4.720489433235
H     -3.095547378954    -0.708922385700    -2.331827747548
O     -1.500883616798    -0.479535014211    -0.482357664618
H     -0.784088378342    -0.493796721864     0.238665726337

