# STO-3G

title

0 1
C     -0.317844424419     2.678814402420    -2.426002280435
C      0.067653313042     3.806134775442    -1.671882819308
C     -0.076713373106     5.097351494015    -2.222267847443
C     -0.591966769922     5.263163758108    -3.522353931215
C     -0.973272898143     4.133129386984    -4.271761699539
C     -0.835014702082     2.838184211668    -3.728789551343
H     -0.632639401607    -0.938453153406     2.386185621166
H      0.455017396032     3.696384961361    -0.660105625490
H      0.207498552718     5.965484914576    -1.630558030931
H     -0.702295805258     6.260314292958    -3.942264183851
H     -1.382269824350     4.254762945036    -5.272802950893
H     -1.143625010945     1.974009264260    -4.314072243969
C      1.488974731797     0.034742504146     2.431059034940
H      1.593175700164    -0.104815342201     3.504222009660
H      1.934385519282    -0.719918486296     1.787762894230
C      0.856717247978     1.097753718941     1.880248113701
H      0.785369731327     1.181587672403     0.801991771489
C      0.222870838176     2.188701830615     2.633248490467
O     -0.319958287951     3.125590855198     1.988854738161
O      0.237867071404     2.179386891282     4.040236741471
C     -0.443394598418     3.266536542913     4.681483115796
H     -0.367397565523     3.148911885024     5.783922265885
H      0.016606512724     4.241692833786     4.402944343508
H     -1.522679870772     3.273571944219     4.406799328756
Pd    -0.232843102233     0.871214582021    -1.628820568723
C     -1.754254156901    -0.430231446071     0.016710493073
O     -0.630550142603    -0.971866237272    -0.396461090611
O     -2.187239428331     0.621188968884    -0.600394404557
C     -2.426707927728    -1.037058670107     1.255690478664
H     -3.057625708491    -1.880462196097     0.942827338594
C     -3.264406813939    -0.042778995304     2.027800046684
H     -3.720557497041    -0.549024106969     2.903596213480
H     -2.619789120666     0.783517434010     2.390295010867
H     -4.069781809122     0.366421803813     1.383577214620
N     -1.394946162301    -1.565462744793     2.141085216112
C     -1.272781877951    -2.908378604408     2.334207278477
O     -2.062515132998    -3.769761582439     1.887680747910
C     -0.109822213114    -3.325652416312     3.144469937180
H     -0.137381248892    -4.423366740174     3.259372759354
H      0.800494502313    -3.015555826633     2.606740145993
H     -0.180439563129    -2.828323019681     4.127043298525
N      1.783430101519     0.586955012739    -2.050889618098
C      2.474020387879     1.348830486878    -2.961883147282
C      3.821985141433     1.138819809944    -3.163794838695
C      4.493571194951     0.167237981472    -2.459421340672
C      3.785954189448    -0.586970536705    -1.563744279394
C      2.406296673329    -0.352385376903    -1.386741143563
H      1.971529440430     2.115434440054    -3.536199018434
H      4.351277208816     1.746392595935    -3.880185126699
H      5.556546226820     0.000273351618    -2.613398264141
H      4.249874468097    -1.364173153632    -0.988936882959
O      1.857140205282    -1.154250891224    -0.492131458075
H      0.838209899726    -1.151208637758    -0.379130529257

