# STO-3G

title

0 1
C     -0.180069845364     3.001615145886    -1.927251960151
C      0.688493613539     4.048753091328    -1.554523839606
C      0.450863274050     5.357340222454    -2.026624471437
C     -0.641304996278     5.617099490874    -2.876331695725
C     -1.504479292538     4.566596811116    -3.246346742645
C     -1.278473325405     3.257315927332    -2.773589254760
H     -0.654679007891    -1.376768946014     2.622484637656
H      1.529026793247     3.858143317684    -0.888656440859
H      1.115970324477     6.164676374696    -1.726445750726
H     -0.821083579162     6.625498104974    -3.241814677916
H     -2.354609341832     4.761735912353    -3.896805292193
H     -1.961915121309     2.456925077734    -3.049457380022
C      0.911753088985    -0.196209490035     3.757597372249
H      0.175273707696     0.208767613550     4.447230607118
H      1.409690339975    -1.114434492566     4.059831289407
C      1.219019569583     0.390024445122     2.578248789556
H      1.943787437682    -0.062275443088     1.914311500189
C      0.590648718155     1.614027017101     2.063706491517
O      0.845879458438     1.965384382125     0.879443516146
O     -0.382072592524     2.286062585538     2.826637554699
C     -1.031356462795     3.391927302466     2.181690185618
H     -1.768925466955     3.843874757196     2.879182258586
H     -0.293863819682     4.176856618088     1.898612707013
H     -1.579611894239     3.056264297609     1.271850478672
Pd    -0.014310743193     1.171575551687    -1.186224126661
C     -1.553508769421    -0.285001780396     0.325816447640
O     -0.372792904148    -0.741714901220    -0.011583003309
O     -1.974803376467     0.818164283567    -0.207687298537
C     -2.343658562688    -1.070892978504     1.383396240269
H     -3.031652057848    -1.755468463462     0.869060246179
C     -3.131559739333    -0.179904384294     2.317696861989
H     -3.692761458010    -0.810238546319     3.038041853535
H     -2.435202491369     0.471069792297     2.884545538192
H     -3.847828026436     0.444693136433     1.745359133674
N     -1.420464970657    -1.873647398444     2.173377651828
C     -1.346091069357    -3.220899290236     1.987304423743
O     -2.121033407583    -3.888480755552     1.266557805515
C     -0.255178766969    -3.896870406567     2.719616343152
H     -0.303899184710    -4.978331060360     2.502915177904
H      0.697721992721    -3.471972989978     2.362347690742
H     -0.396860266671    -3.706862554108     3.797009702443
N      1.918324742841     0.836532241883    -1.856561391070
C      2.497208396196     1.552669586189    -2.872794868151
C      3.818741878789     1.337675281809    -3.206024217959
C      4.568238162975     0.402813924035    -2.528748011256
C      3.963816350200    -0.312527718663    -1.530128007992
C      2.608833696841    -0.070080758872    -1.219808275221
H      1.921150003371     2.282215102983    -3.427832477090
H      4.263466458305     1.908743709795    -4.004632058965
H      5.609748142641     0.229893347204    -2.786809075661
H      4.487142465086    -1.065593492988    -0.975295293781
O      2.145470623160    -0.851279620171    -0.255188223483
H      1.139533118657    -0.843079592931    -0.091646896883

