# STO-3G

title

0 1
C      1.637657723906     3.049851549256    -0.768306846184
C      2.920203267354     2.474613839973    -0.642981391736
C      4.050566265852     3.307419263495    -0.500726492916
C      3.904334054636     4.707727016117    -0.498502591362
C      2.622256416259     5.277024683269    -0.630096972731
C      1.486679955976     4.451973925393    -0.766347232214
H     -1.636041663103    -0.903125235420     2.039137162803
H      3.043931157365     1.393036576577    -0.624305195258
H      5.036227642264     2.859853051119    -0.387320708672
H      4.777353931062     5.347744718796    -0.391800986985
H      2.502151673779     6.358611837903    -0.624403105976
H      0.499317180712     4.902409022151    -0.851123222960
C      0.521785096501    -1.282602830882     0.769459711602
H      0.725912560833    -0.446751685456     0.103510879309
H      0.142525164001    -2.180143591522     0.287744250802
C      0.699217255988    -1.190531781935     2.107735673393
H      0.484369493638    -2.031201081005     2.754372607298
C      1.175098598548     0.023292774335     2.786308133120
O      1.287427745046     0.019317927793     4.040640307916
O      1.463137707933     1.174604835106     2.027928726935
C      1.804851682979     2.348047861799     2.780214181242
H      2.010622794119     3.190501166431     2.085173795326
H      0.962360278327     2.649966903905     3.442856465035
H      2.718022803419     2.174930608712     3.393183203335
Pd    -0.008408791730     1.950456902694    -0.790150925095
C     -1.915359584904     1.478226326465     0.907574614691
O     -1.865018698767     0.842191922709    -0.242418830905
O     -1.161391864309     2.517775869103     1.063624257705
C     -2.799189805995     0.866376030635     2.003556029852
H     -3.852502876592     1.054250144605     1.756524853224
C     -2.500028569529     1.387917424639     3.390377914821
H     -3.192846385505     0.914700076095     4.116579112550
H     -1.460760502474     1.124488794861     3.672707600562
H     -2.630594291151     2.488880114570     3.425516399767
N     -2.598621825280    -0.581922465480     1.991952108236
C     -3.594009365028    -1.405555080417     1.553091296068
O     -4.745059677107    -1.023689970964     1.245199848847
C     -3.269948557046    -2.845982746023     1.453350933347
H     -3.994884801720    -3.389555427479     2.081655850247
H     -3.386681412130    -3.133741570835     0.395704952939
H     -2.241237310825    -3.045133954487     1.799365899737
N      0.507199987259     0.864971550804    -2.479184355210
C      1.405480633562     1.332189729658    -3.406683980748
C      1.741933627629     0.559510512235    -4.497974988737
C      1.178972198130    -0.682558448501    -4.677932357240
C      0.268638405850    -1.119832640132    -3.754623760457
C     -0.063629743966    -0.300360419436    -2.655495993012
H      1.852963585596     2.311516423692    -3.295639829510
H      2.452509870130     0.936786774665    -5.215793958250
H      1.441715931406    -1.295331679810    -5.536430323737
H     -0.219962117168    -2.069857858980    -3.848580261142
O     -0.971192324814    -0.839198925795    -1.863649609125
H     -1.399196118104    -0.253518592927    -1.139657473764

