# STO-3G

title

0 1
C      0.920054295110     2.903714839723    -2.174074713778
C      1.803670835214     3.586471034502    -1.311202687628
C      2.081180480375     4.952625424778    -1.532460428727
C      1.489943793064     5.631729420920    -2.614842716606
C      0.610063556616     4.944605202596    -3.474316292477
C      0.323030893741     3.581014529049    -3.257707927721
H     -1.388931703732    -0.397020247992     1.665159365822
H      2.261488818650     3.078120660085    -0.464788421252
H      2.751445944419     5.481084625383    -0.857044501594
H      1.706087355499     6.684361336409    -2.783145179799
H      0.143146667190     5.465728307682    -4.307740321243
H     -0.371320610922     3.065429409259    -3.918815385970
C      0.659974295204     0.850078002115     1.758597063347
H      1.019350955129     0.225148003597     2.573503687210
H      1.164199387343     0.720740108493     0.806291951656
C     -0.359891823620     1.733847244857     1.870682094155
H     -0.667179166139     2.306124425976     1.005180578960
C     -1.129062355269     1.975534940747     3.102035389710
O     -2.061987030134     2.822086686528     3.077349972277
O     -0.806584417976     1.275272145042     4.280513247085
C     -1.661307221947     1.519651546764     5.405934002565
H     -1.315376933364     0.912769573616     6.269910732115
H     -1.631834573668     2.593388285720     5.699908028849
H     -2.710954716640     1.227851730697     5.173882378501
Pd     0.373554926754     1.028595562459    -1.852322956598
C     -1.767807597162    -0.064955832048    -0.884087465410
O     -0.708078107055    -0.805013327009    -1.135270497512
O     -1.804605170671     1.131295354403    -1.379756461740
C     -2.801084018454    -0.631017581604     0.098478629754
H     -3.269755873178    -1.523840753952    -0.334938066382
C     -3.866326709757     0.360786053792     0.505779133074
H     -4.568922193441    -0.125710502088     1.213533061622
H     -3.396025616706     1.227570575911     1.014411114741
H     -4.427847168984     0.710426972891    -0.384566855442
N     -2.067663739037    -1.053984897699     1.292158048169
C     -2.055651121186    -2.358701567795     1.683428262712
O     -2.731708746246    -3.271081815491     1.160152665311
C     -1.159122067020    -2.660979895976     2.818556626197
H     -1.252165087692    -3.732885199184     3.065317008295
H     -0.129807831784    -2.422442829801     2.503562931889
H     -1.464074191141    -2.033215158685     3.673951837962
N      2.300673492779     0.296896625993    -1.833630672962
C      3.324544172548     0.881984120680    -2.535863923180
C      4.604899427520     0.379477688067    -2.440013690201
C      4.871296722061    -0.715491243953    -1.649921492096
C      3.830766849239    -1.296357226508    -0.976018547595
C      2.530582307608    -0.766209685441    -1.105601985108
H      3.134905488357     1.740086735791    -3.169174533585
H      5.402410720986     0.851646833274    -2.991121745611
H      5.879486772949    -1.114033306122    -1.570369571182
H      3.969550903401    -2.161612277018    -0.357538812497
O      1.621139259710    -1.432056519931    -0.417686230675
H      0.629287827736    -1.247669189722    -0.607876218059

