# STO-3G

title

0 1
C      0.836932005039     2.898714441165    -2.134079663503
C      1.728485028824     3.575825085157    -1.274976090135
C      1.986434142847     4.948807693907    -1.476632073567
C      1.367817970035     5.640130539306    -2.535816435584
C      0.480003648684     4.958390605757    -3.391388044433
C      0.212285325990     3.587874293000    -3.194255219084
H     -1.368008342763    -0.490445328137     1.737922588443
H      2.205913485505     3.056812674613    -0.446135319362
H      2.662676265022     5.473045221104    -0.803915919805
H      1.568737387153     6.698084811529    -2.688889667922
H     -0.008351541541     5.488916509439    -4.206391405568
H     -0.488621812221     3.076178170763    -3.851412354421
C      0.721388028966     0.692190643228     1.881400475939
H      1.031530182173     0.170578011255     2.784234466953
H      1.245462469883     0.410826889090     0.973993560796
C     -0.259587933485     1.625564310065     1.849311105814
H     -0.522501415991     2.095137576700     0.910343377097
C     -1.043041267397     2.056591623562     3.018150282928
O     -1.943395688294     2.923260052410     2.858018602805
O     -0.767865789541     1.513129608564     4.287656512751
C     -1.624996436087     1.947310198202     5.352508552090
H     -1.317459387239     1.451759004288     6.298210051772
H     -1.551109277736     3.049177405393     5.496156604387
H     -2.683688616165     1.671236818382     5.143643438376
Pd     0.321902367633     1.011656738646    -1.832669727609
C     -1.780868297975    -0.120671762001    -0.825301644607
O     -0.721370597339    -0.846289294580    -1.113492709523
O     -1.840891761055     1.082751461837    -1.302064967900
C     -2.786881345425    -0.710925155740     0.171619733222
H     -3.259146296798    -1.598462452602    -0.268750953145
C     -3.848828571746     0.266393537446     0.620243392579
H     -4.528033783768    -0.234661751566     1.340505322223
H     -3.372115456398     1.131556828336     1.125561177963
H     -4.436996366539     0.622031164524    -0.250318969471
N     -2.027051314503    -1.154219267832     1.340979268577
C     -1.960577913063    -2.474936198601     1.670232174410
O     -2.605907548381    -3.387392851990     1.109695132245
C     -1.041479043998    -2.796271561988     2.781749552703
H     -1.089737058524    -3.881947428459     2.975805659463
H     -0.025573991133    -2.502282215392     2.470366938270
H     -1.363357813460    -2.224862978745     3.669590820614
N      2.257464391708     0.305593453375    -1.884575639154
C      3.255296049991     0.920704134957    -2.598662910521
C      4.543144067377     0.430370908486    -2.551591738826
C      4.843065749993    -0.681742535410    -1.798412636507
C      3.827919332398    -1.291689253690    -1.111627535248
C      2.519136106273    -0.772899541288    -1.191406886837
H      3.039275591336     1.792569743883    -3.204033464237
H      5.319872855906     0.925931266305    -3.111751654869
H      5.857264279561    -1.070728315071    -1.757228090954
H      3.993117210076    -2.171106904279    -0.520244027214
O      1.636653157602    -1.466386484271    -0.495016065738
H      0.637327924590    -1.289315193165    -0.650477467415

