# STO-3G

title

0 1
C     -0.025763197548     2.293215411446    -1.863953923790
C      0.610830069955     3.475221231600    -1.431411400237
C      0.280663390067     4.711172757829    -2.027671434333
C     -0.683254742328     4.772482975965    -3.051628869883
C     -1.325264106858     3.591521428623    -3.473771821044
C     -0.998477382900     2.352873833728    -2.884671478620
H     -1.006626465938    -4.034275047142     1.521408031351
H      1.334687441572     3.452825640825    -0.618485932745
H      0.770400272327     5.619337641437    -1.681180489235
H     -0.936476518322     5.726012574002    -3.509728541934
H     -2.080474943071     3.630152686951    -4.256663531362
H     -1.512687940444     1.450164165739    -3.209935526331
C      0.598297465769     1.401062413089     2.008658588559
H      1.309924300263     2.131313940640     1.626675016095
H      0.996739396095     0.427672967027     2.278030938313
C     -0.722168423343     1.649237573427     2.168789250828
H     -1.352086246841     0.854852415490     2.536140170257
C     -1.387610822852     2.922122439202     1.856472075580
O     -2.635571052867     3.011822679948     2.004925385191
O     -0.622106976570     4.023584958198     1.427367313304
C     -1.367192364865     5.188792944107     1.047581171888
H     -0.664567694612     5.988818832867     0.732533159285
H     -2.040277378972     4.960870026298     0.189414302121
H     -1.970267269820     5.570443567997     1.902513516030
Pd     0.298336941266     0.514904396563    -1.060575426318
C     -1.194824977192    -1.288614354196     0.070535230964
O     -1.705666622624    -0.253677728904    -0.504969082280
O      0.097998031375    -1.498754839517    -0.016422146591
C     -2.046963471419    -2.347909488361     0.794562737663
H     -2.374347304329    -3.062996905588     0.026870280871
C     -3.282756573356    -1.780896879316     1.462491511275
H     -3.838685960055    -2.598014981811     1.966533999313
H     -2.998166613392    -1.024136060646     2.220430467498
H     -3.942255387762    -1.304229378649     0.708070972893
N     -1.249433126925    -3.085886157700     1.773324740743
C     -0.557602404556    -2.481080856073     2.779126803997
O     -0.614480846873    -1.261875242980     3.051208308041
C      0.303182267848    -3.372590334728     3.583835655496
H      0.785691738844    -2.776008701234     4.377698721000
H     -0.340176426166    -4.154070088990     4.020996109388
H      1.062327906134    -3.813825855186     2.915198623088
N      2.355239928640     0.632480619869    -1.184004114868
C      3.022061322964     1.392784919918    -2.111224380217
C      4.397541907585     1.485928724352    -2.069117454732
C      5.116683698441     0.813025050464    -1.107215657540
C      4.431699904860     0.037396300984    -0.210552050148
C      3.026462683484    -0.045300458140    -0.290785071666
H      2.474705673701     1.922014207088    -2.881714449547
H      4.910205819984     2.093104207830    -2.797746095112
H      6.200528267022     0.885556225653    -1.068467819990
H      4.933595728590    -0.527403540449     0.550422946173
O      2.493292694587    -0.853450745466     0.609581099388
H      1.512488022817    -1.099825196542     0.499397446152

