# STO-3G

title

0 1
C      0.807503515963     2.547962014043    -0.764254126678
C      1.821612766109     3.477595456804    -1.069155702664
C      1.488067347695     4.668657234508    -1.750742457028
C      0.155150106433     4.925375628834    -2.123172232061
C     -0.849575206024     3.987271757071    -1.813312113726
C     -0.532029057187     2.792310078867    -1.133817660112
H      1.314089354921    -1.738426659674     0.386257345496
H      2.857711444600     3.292584502172    -0.793655000311
H      2.270504136341     5.388280584033    -1.983933965683
H     -0.097560991092     5.844402762890    -2.647198560597
H     -1.883142345536     4.178243107558    -2.095715662343
H     -1.311970148597     2.072188755937    -0.893660017121
C      2.198504303694     1.778435132591     1.900504531016
H      2.746384749734     2.649387927543     1.558193239639
H      2.770947036854     0.907488729757     2.205730563953
C      0.834247811923     1.838474193621     2.196986474548
H      0.378813909480     1.003315455573     2.706089703365
C      0.022910848266     3.067819936581     2.191978397290
O     -1.184756662331     2.992023099251     2.540202927788
O      0.622891812841     4.299150533812     1.878147353079
C     -0.269236402674     5.414477635341     1.753219777871
H      0.313057651917     6.321264773408     1.483184364747
H     -1.015432303981     5.232537397796     0.946598911160
H     -0.797919268768     5.610250212374     2.713434856480
Pd     1.200113959898     0.825465643359     0.161296959542
C      0.922956881192    -1.395788613988     2.578021502732
O      1.548384731800    -1.072841221213     1.417982004349
O      1.394388765548    -1.153036836844     3.704149863199
C     -0.505652582310    -2.031561112740     2.411935029083
H     -1.040993895257    -1.839609033436     3.347297716787
C     -0.451136403904    -3.530312607552     2.211254855445
H     -1.479466565862    -3.930779852183     2.094586003281
H      0.134755647415    -3.773845228181     1.299412619012
H      0.030291970499    -4.014389883691     3.086344306672
N     -1.190067328748    -1.441192483988     1.260873905203
C     -1.980612378053    -0.335137413760     1.204033556487
O     -2.164963548446     0.313148281911     0.143204462839
C     -2.684021142140     0.074350691527     2.437128189487
H     -3.315589072778     0.951439407435     2.201117511488
H     -3.316096140634    -0.765734552221     2.770179887145
H     -1.949364077453     0.363089876306     3.206773636363
N      1.171066191887    -0.232829310606    -1.725810857158
C      1.181140146550     0.407430269537    -2.942394420275
C      1.008615243349    -0.303569034099    -4.113124884085
C      0.824786702680    -1.665202231087    -4.086007972773
C      0.835667814450    -2.293393102279    -2.872971255441
C      1.024752020430    -1.537371667737    -1.693603109556
H      1.342725017383     1.473210682206    -3.009481671989
H      1.015666702202     0.219271093392    -5.055146729692
H      0.685423418445    -2.228337484072    -5.004843369122
H      0.716778272388    -3.353501566138    -2.778324084736
O      1.030460629884    -2.251855756415    -0.595988755776
H     -0.809021946198    -1.696901780557     0.349933401061

