# STO-3G

title

0 1
C     -3.812435386627    -0.316821982329    -0.007536304834
C     -3.880480006473    -0.619523283043     1.391562339441
C     -4.324842235602    -1.913075406804     1.809270670550
C     -4.671333193614    -2.876385685188     0.859500994537
C     -4.617985901267    -2.569115416590    -0.531622385940
C     -4.210181353888    -1.304961320083    -0.961260301944
H     -3.619370676381     0.699446020827    -0.337109957797
H     -3.763700007230     0.168284264857     2.131502129562
H     -4.396434115505    -2.131376976575     2.871065941891
H     -4.999772475021    -3.861443252202     1.179831185945
H     -4.907327970229    -3.323149767551    -1.258614569165
H     -4.188579540022    -1.059706213689    -2.019162235452
C     -1.332841560276     1.114473218767     0.859217551682
H     -0.960460433455     1.310539635257    -0.143357893853
H     -2.303637365899     1.585066096579     1.042663298054
C     -0.260361073390     1.491813983728     1.883791337167
H      0.504835760418     0.732556873454     1.932924593999
C     -0.679645302723     1.816608255802     3.279797070042
O     -1.913656757039     1.844080221177     3.554966179531
O      0.270943247072     1.665743203386     4.307882933090
C     -0.184869918453     1.983205575348     5.630030660770
H      0.654361616648     1.858301856570     6.347304982843
H     -0.531952677893     3.040198312009     5.683021691982
H     -1.011575066867     1.304516119254     5.938915172523
Pd    -1.686734946964    -0.891712767254     0.680635385125
C      1.608447805681     2.767895904426     0.558907330185
O      2.149321208669     3.871154754204     0.470368085687
O      0.415896925422     2.726453273427     1.316249224736
C      2.172694741844     1.489600937558    -0.152278709348
H      3.140489497675     1.286678580797     0.352572019291
C      2.464422033614     1.796618079931    -1.606003657406
H      2.869999489414     0.894879654446    -2.107164245229
H      1.520447783300     2.095416914598    -2.107188132664
H      3.199869360484     2.624040908663    -1.688869277267
N      1.204140776031     0.431704264791    -0.128037324220
C      1.296528264401    -0.800837061547     0.226564444002
O      0.226042969716    -1.553836516985     0.467093757798
C      2.604322344781    -1.459514912795     0.439895186216
H      3.188130391781    -1.363075129406    -0.490998348390
H      3.108696005462    -0.956492155155     1.281178463919
H      2.441436079527    -2.525873125509     0.680188705504
N     -1.095242138626     3.015772921620    -1.812474148878
C     -1.378478298143     2.681566550535    -3.108595094525
C     -2.613978438542     2.995598285006    -3.649920382798
C     -3.557139065363     3.667340155136    -2.897582747984
C     -3.243294957887     3.993992653929    -1.603725815480
C     -1.969187316473     3.643124964514    -1.106581981950
H     -0.638504087800     2.159594095695    -3.703760435597
H     -2.827473963423     2.730221126072    -4.671839608553
H     -4.522965919379     3.930910589298    -3.320007208414
H     -3.916196130377     4.523263467644    -0.959407437681
O     -1.763230146308     3.999791880075     0.176738961956
H     -0.880158099778     3.704446715636     0.525126663069

