# STO-3G

title

0 1
C      2.140604899148    -1.574252175538     0.484129750126
C      2.435030674157    -2.701034691855    -0.308401751961
C      3.634211299617    -3.412018988938    -0.101306216493
C      4.532925662442    -2.995971654609     0.901094273963
C      4.230561622554    -1.873169461238     1.698061569241
C      3.033727233029    -1.158573701023     1.493261761372
H      1.212266561124    -1.028358570794     0.330385210420
H      1.731986539670    -3.034558642359    -1.069673960449
H      3.861500707069    -4.284515554001    -0.709816147917
H      5.457211591385    -3.546226384819     1.063639004928
H      4.920344805443    -1.557984537914     2.477731289063
H      2.785947041777    -0.298112953871     2.110414262672
C      1.551721572256     1.682777321810    -0.314056617998
H      1.835682940520     1.047280591219    -1.151474243108
H      2.068259932547     1.525748221267     0.626755415939
C      0.678430796218     2.755407796137    -0.449177903687
H      0.541477861154     3.422605576767     0.387087603968
C      0.054983309750     3.174263753896    -1.715036449727
O      0.084033848869     2.388482947241    -2.700916976567
O     -0.782809707437     4.300730416877    -1.708811066022
C     -1.412683157102     4.622400854787    -2.957431565095
H     -2.033588559625     5.536105642794    -2.832163412890
H     -0.651592582557     4.827307813159    -3.744547367615
H     -2.078522281686     3.794911902492    -3.292714156083
Pd    -0.516280522236     0.888454716046     0.287911378703
C     -1.909311595570    -0.825850776147    -1.794759004990
O     -0.645562633879    -0.171647288342    -1.554029871084
O     -2.122182424745    -1.361691620050    -2.872150590754
C     -2.804220597843    -0.668622522114    -0.557007471041
H     -3.354466514704    -1.612454830320    -0.444338365970
C     -3.788208964098     0.466378443181    -0.736237275486
H     -4.454537471734     0.515768030229     0.150266668281
H     -3.244613811105     1.428095611957    -0.828530180857
H     -4.409377491443     0.299027339329    -1.641292234403
N     -2.028196312850    -0.401454252805     0.667876981950
C     -1.908655420876    -1.467885046088     1.523207047907
O     -2.476836326195    -2.579189921250     1.366826399732
C     -1.078722958134    -1.245068778603     2.718635486306
H     -0.066142474520    -0.948204136421     2.405127203868
H     -1.553175469467    -0.454011139097     3.320196124384
H     -1.031869187312    -2.182311898292     3.302279921136
N     -0.714914654869     1.812883710587     2.037675994910
C     -1.975959846985     2.185235964866     2.407808907661
C     -2.192087423740     2.716489939655     3.659424697628
C     -1.150727918328     2.878386860420     4.545492896514
C      0.105949736437     2.488191811655     4.165396819297
C      0.328615876129     1.925109336988     2.882994923158
H     -2.800139418766     2.074222910284     1.713885946329
H     -3.188750798779     3.011430919070     3.943372457959
H     -1.323650580372     3.301133741989     5.531577876616
H      0.949630374169     2.575820957115     4.819622094485
O      1.507500043148     1.549717544319     2.614113159338
H     -0.039026539781    -0.165721313485    -2.326651334763

