# STO-3G

title

0 1
C      2.188326876844     2.773656148239    -1.580760538988
C      2.628622091129     3.215806206178    -0.308053260476
C      1.707931110584     3.394385291230     0.727566969047
C      0.332726353588     3.113401299927     0.500823517264
C     -0.115833392931     2.712196840360    -0.792622231178
C      0.832518852789     2.559084011495    -1.836750528235
H      2.917580557746     2.585302273787    -2.358817535190
H      3.685389087233     3.408789816338    -0.141156666396
H      2.030085578083     3.748046540762     1.703758856213
H     -0.402638647941     3.319238085434     1.272980381974
H     -1.185985650684     2.611537720839    -0.955766705371
H      0.503657048035     2.238609617982    -2.821115998762
C      1.451400111459     0.791314017709     3.308594009361
H      0.971473968901     0.137526582425     4.033776077920
H      0.996294221555     1.771338484385     3.194783393548
C      2.492080767186     0.405664315992     2.530367606589
H      2.854497585652     1.097741702789     1.791292407032
C      3.102709217580    -0.948795739537     2.574367189678
O      2.568165932711    -1.825242353561     3.302081498515
O      4.237120994409    -1.315955370431     1.822286313389
C      4.828101965859    -0.348889042130     0.943013689536
H      5.699608055211    -0.813142460776     0.432559188744
H      4.114951181940    -0.037351908547     0.146976488080
H      5.196606719668     0.535192143708     1.508634062394
Pd    -0.043865883867     0.655371269825     0.540755357158
C      1.648213188246    -1.269763600900    -0.757762254261
O      1.543414859762     0.054683039938    -0.527844254865
O      2.560906723657    -1.772321017400    -1.441016695933
C      0.528541968947    -2.139238148423    -0.101995399641
H      1.005011772076    -3.067227623547     0.242079444418
C     -0.553125402710    -2.480067620955    -1.105228855689
H     -1.324535308780    -3.118926652274    -0.629971835617
H     -1.035010438266    -1.547228974978    -1.465055997774
H     -0.115388268935    -3.024058064529    -1.968585169536
N     -0.106660994613    -1.359828452324     0.976757592693
C     -0.572039713782    -1.808057100773     2.109520422349
O     -1.187980756435    -1.044394048100     2.994999830572
C     -0.428237012826    -3.223987575070     2.493164370419
H     -0.916740712697    -3.853638063017     1.732547050056
H      0.649828811476    -3.448152251126     2.578032600905
H     -0.905309327920    -3.386536102035     3.477259897596
N     -2.980842243001     2.231952411544     0.476689131285
C     -4.197706873372     2.825706155477     0.275344085325
C     -5.137339173231     2.842062512846     1.290178119531
C     -4.857760616547     2.265555853690     2.511099850928
C     -3.630934834464     1.679543688270     2.687447909643
C     -2.708747050888     1.688838810101     1.612151753140
H     -4.421524330002     3.281932411363    -0.681851480472
H     -6.091977267126     3.312136434831     1.120875149516
H     -5.590451272910     2.277984418082     3.313662515485
H     -3.349694284774     1.222060261912     3.614084497726
O     -1.535030057141     1.105080218027     1.886799609688
H     -1.388933183504    -0.057553724239     2.646384713751

