# STO-3G

title

0 1
C      2.066236161415     2.559858650222    -1.954710637799
C      2.620269095481     2.992788681110    -0.722920072305
C      1.794257887339     3.181926582739     0.384125990887
C      0.398758281201     2.922224852964     0.275764436714
C     -0.161092496690     2.533477501923    -0.978088002327
C      0.691346159089     2.364008097774    -2.098325117639
H      2.726407971425     2.366959879240    -2.791619687080
H      3.690741419837     3.164580467487    -0.647103942672
H      2.202707050090     3.526630798595     1.329366469419
H     -0.278131529898     3.168608787124     1.087839879503
H     -1.243185214209     2.471350083079    -1.047107020113
H      0.275326858536     2.057223852754    -3.054147973340
C      1.658511777187     1.335509864343     3.280336315412
H      2.564382254406     1.923579316143     3.185682442507
H      0.732458586754     1.889442615669     3.427965671018
C      1.608096553490    -0.012322655287     3.202580465396
H      0.651169690285    -0.497238253380     3.338615933438
C      2.736750036892    -0.940950633239     2.980333648689
O      2.516950355243    -2.172197927868     3.108398793126
O      4.057777145601    -0.496928356695     2.810909091287
C      4.302127527999     0.367611318021     1.689578794376
H      5.007099183886    -0.131175418609     0.987957572950
H      3.386689589173     0.626759507367     1.113657417533
H      4.775496904515     1.308563259579     2.041314106587
Pd     0.015023084288     0.507024241717     0.420934001130
C      1.924562566719    -1.297689505950    -0.745556059513
O      1.669494467549     0.015367464272    -0.574152518057
O      2.979790248582    -1.723347950064    -1.251621691756
C      0.774914927340    -2.242793709588    -0.283562938465
H      1.241824290358    -3.170005880184     0.073978460537
C     -0.152715695647    -2.563896039927    -1.437606054837
H     -0.956764092496    -3.249722177596    -1.103860696512
H     -0.615622237152    -1.628010823936    -1.814256823775
H      0.415402575878    -3.047777930903    -2.259879790396
N     -0.025764522374    -1.544398091597     0.743888410136
C     -0.644497376649    -2.093865609515     1.753821958050
O     -1.387520836720    -1.409444089867     2.603080228550
C     -0.516159043625    -3.532774036578     2.049517137256
H     -0.869884813479    -4.112786805663     1.182432703953
H      0.544719681844    -3.743551806591     2.275368430078
H     -1.127460428113    -3.780451454144     2.937051195778
N     -2.765069612991     2.531110278986     0.743969275470
C     -3.862556528896     3.348784976478     0.755703054239
C     -4.793601578182     3.243454543018     1.772790696337
C     -4.624765314034     2.319239803203     2.781737116001
C     -3.515553665022     1.513851708686     2.746965255651
C     -2.596758985541     1.662339628267     1.677900898277
H     -3.998100724731     4.078238122683    -0.034231812731
H     -5.654106398084     3.891996918842     1.772677417990
H     -5.351185975907     2.233743162928     3.585587006494
H     -3.326155754902     0.783671487323     3.507313908963
O     -1.538806990891     0.843616345804     1.740178061852
H     -1.536454218331    -0.372996657768     2.324417215892

