# STO-3G

title

0 1
C     -3.124882852904    -1.984856395587    -1.321095035448
C     -4.253743211829    -1.335263061186    -1.891683729635
C     -4.257931065086    -0.997300734539    -3.246852857265
C     -3.129846909343    -1.286000732681    -4.058632136901
C     -2.005031359175    -1.910963321078    -3.509466288301
C     -1.995610874358    -2.282223311234    -2.138614447235
H     -3.187426763989    -2.386245244297    -0.313536686060
H     -5.120084213790    -1.122164337463    -1.273314750668
H     -5.125157770874    -0.508525056593    -3.680011925240
H     -3.140304492651    -1.020724761063    -5.112890863886
H     -1.143592358988    -2.140490626228    -4.130516216717
H     -1.188359255108    -2.887279066682    -1.738884346732
C     -4.077126914230     0.510437784473     1.222524951002
H     -4.720861610310    -0.269905691277     1.625394444050
H     -3.985468001810     0.589942916432     0.144727748769
C     -3.373053836047     1.367017241704     1.997413120019
H     -2.735450995319     2.097947597152     1.520251226125
C     -3.366934921053     1.380802730352     3.468107118862
O     -4.035140195108     0.525157879167     4.109604561419
O     -2.470089873229     2.243125639740     4.125697253923
C     -2.499795114737     2.201039662550     5.559534133716
H     -1.764029867821     2.928006690974     5.965762330391
H     -3.508511465897     2.478898948208     5.941771937143
H     -2.231818316956     1.186581882043     5.933040000231
Pd    -1.361984622535    -0.675714957863    -0.233058346542
C      0.098909339996    -2.427534757013     1.504627912760
O     -0.730606036894    -2.448470678344     0.438239571456
O      0.753842805234    -3.412288892846     1.887102692942
C      0.114587844053    -1.073530102124     2.273593684395
H      1.112699567305    -0.964473699136     2.716681934047
C     -0.920513646587    -1.097092829591     3.380898146172
H     -0.887218212470    -0.158861029257     3.966443071887
H     -1.934855371201    -1.209332438576     2.942792638503
H     -0.728102825590    -1.948625278086     4.067148590164
N     -0.236259658395     0.029139666718     1.351835102693
C      0.112907371345     1.284763372114     1.452781763100
O     -0.339633238037     2.229913396151     0.661392044913
C      1.067622585898     1.734051168351     2.484136873368
H      0.640292604514     1.531036947591     3.479014378761
H      2.023105745639     1.205304301077     2.332247931093
H      1.230569283544     2.823298055560     2.378856434438
N     -2.978712393798     1.947703305751    -2.763706429248
C     -2.931799191469     2.265948923200    -4.094754712202
C     -1.754477452690     2.106603110834    -4.806241925853
C     -0.619211604697     1.635371024843    -4.180672747427
C     -0.689255095842     1.336073087941    -2.844084206238
C     -1.926593648776     1.516350680429    -2.175086320194
H     -3.822472329795     2.633165991115    -4.590645705219
H     -1.731313651180     2.355805076411    -5.853850330144
H      0.308735973092     1.511111412442    -4.732168789516
H      0.158717024336     0.981747986797    -2.297537138601
O     -1.926697384942     1.216309354513    -0.850823958739
H     -1.073512854411     1.883839499421    -0.074614591168

