# STO-3G

title

0 1
C     -3.069575035323    -2.031016134809    -0.242605994291
C     -4.283294879141    -1.637624269776    -0.852564814202
C     -4.413689210397    -1.685638262173    -2.245130209554
C     -3.319653254818    -2.079015387530    -3.055876913009
C     -2.112198518956    -2.463618613311    -2.465332846919
C     -1.982473886853    -2.470750998582    -1.047948914778
H     -2.982034708920    -2.080734739746     0.836762404199
H     -5.118018183468    -1.324493844567    -0.230586163242
H     -5.358473656420    -1.417148333031    -2.712218410626
H     -3.424811849405    -2.097178315731    -4.138083010544
H     -1.278065682190    -2.792345172371    -3.080369300844
H     -1.145056667252    -2.992943450368    -0.588831230474
C     -2.140338464869     2.303257830081     1.157285121110
H     -1.808482077095     2.838212491978     2.044867365623
H     -1.591017114202     2.505843634764     0.240594565892
C     -3.151328926245     1.402740439730     1.150112115282
H     -3.387165569844     0.912397912178     0.216472146018
C     -3.947068226909     1.012279296784     2.324922181202
O     -3.671113408524     1.488898132373     3.460050441478
O     -4.948636697095     0.038495873511     2.165889695877
C     -5.611281755400    -0.382611105482     3.366163703570
H     -6.374545640588    -1.150365985835     3.115263545527
H     -4.885690527103    -0.836230547257     4.079297566850
H     -6.126330274550     0.474548664048     3.856206840309
Pd    -0.805624454929    -0.638114023731     0.071027049334
C      0.083922699903    -1.753908852890     2.564717593312
O     -0.788152862814    -1.968803845426     1.556220673095
O      0.335456045045    -2.594887814320     3.445369802869
C      0.707280594339    -0.326650707580     2.584269677735
H      1.729095205260    -0.431751155675     2.971327223914
C     -0.081196138034     0.571764639894     3.515745055583
H      0.312341329052     1.606223410838     3.497155980793
H     -1.143272236377     0.591998076195     3.201721870890
H     -0.026695737219     0.184795591245     4.555033642970
N      0.660786087018     0.262305842818     1.227667903190
C      1.488729552567     1.144517122908     0.731234717732
O      1.363754303200     1.674941908155    -0.464720414581
C      2.672485667306     1.598235720943     1.488818227716
H      2.343172185439     2.061824310006     2.431973910647
H      3.324454681076     0.727320293166     1.669698978100
H      3.225496824728     2.346068137718     0.889693926816
N     -2.787894210915     1.127558422457    -2.004432941623
C     -3.704177472897     1.737371604743    -2.817044719215
C     -3.277960904652     2.533116699642    -3.865902024741
C     -1.931134750818     2.711986371008    -4.103737466596
C     -1.035532765941     2.083898283296    -3.276624024045
C     -1.532799200128     1.278246065010    -2.223185170658
H     -4.762753421601     1.599456230927    -2.630960222145
H     -4.007230154189     3.010950730231    -4.498467080024
H     -1.588946164778     3.332163446447    -4.927813853448
H      0.022722557310     2.168529932955    -3.415219652560
O     -0.584126083071     0.698206305239    -1.473258980310
H      0.506661726696     1.316306470290    -1.035772458592

