# STO-3G

title

0 1
C      2.287902588736    -2.168030674132     0.120025169624
C      3.141953456802    -1.655536046320     1.118005668648
C      3.524954098316    -2.458751938121     2.211389933305
C      3.053675781442    -3.783935767335     2.310495951301
C      2.202317309490    -4.302361870567     1.313813150447
C      1.823296403800    -3.495525268507     0.221388471091
H      2.018644964440    -1.538822754223    -0.722946268391
H      3.503440164621    -0.633239353948     1.033906994279
H      4.185815117570    -2.059133819852     2.977914796500
H      3.350845427688    -4.406791152136     3.151512789669
H      1.845798923040    -5.328026460447     1.383524630528
H      1.177409482024    -3.902238213526    -0.554389147293
C      1.002537301907    -2.063071960905    -3.120719077901
H      1.805531864924    -2.763866281481    -3.334671256415
H      0.205374314967    -2.402309486671    -2.466800298346
C      0.995018812693    -0.789964647938    -3.571465854251
H      0.191141442644    -0.122964217225    -3.285957623427
C      2.046540357745    -0.170661901073    -4.392642136472
O      3.043461783309    -0.847591937874    -4.769157946480
O      1.896320941394     1.176822929116    -4.769952646979
C      2.989602600687     1.748656525423    -5.500313623897
H      2.758521256941     2.809345896519    -5.736080286973
H      3.923406150097     1.722646803299    -4.894559008201
H      3.152599617180     1.205096777817    -6.458494612790
Pd    -0.090013515533     1.658660283171     0.965841969887
C     -1.247507129147     0.905839663015     3.460045733012
O     -0.846834397646     1.993647397254     2.753088874374
O     -1.793651828658     0.976173245302     4.570703957904
C     -0.926845250258    -0.454205737155     2.765879028534
H     -1.766269176136    -1.131048526294     2.970235463234
C      0.345279278117    -1.060639405787     3.318734060737
H      0.535145383587    -2.047475709711     2.851237318330
H      1.205337640303    -0.396913175662     3.094180060413
H      0.261465504526    -1.195070162938     4.417465561049
N     -0.716321679244    -0.224525713680     1.319750305982
C     -0.945458092492    -1.031808221999     0.315517941068
O     -0.627567491198    -0.768913365577    -0.924187245418
C     -1.617141049756    -2.324432416037     0.541652035855
H     -0.999708558862    -2.926616700480     1.228649440895
H     -2.617684392035    -2.127263162397     0.961192584546
H     -1.720434447527    -2.856425835951    -0.421993371307
N      2.735687785610     0.682952736288    -1.465816562331
C      4.029258002702     1.007964559507    -1.775097463922
C      4.420044712075     2.335817431446    -1.795501615792
C      3.511711851488     3.336477721974    -1.514845430039
C      2.222190788716     2.979107167357    -1.210533094164
C      1.884287622340     1.605354430899    -1.209397283967
H      4.742324949827     0.223115659015    -1.999376637855
H      5.439914645451     2.582840536132    -2.039658809209
H      3.809017308865     4.381383405758    -1.542260132252
H      1.458547785872     3.704677161509    -1.022258801388
O      0.581679395526     1.329923230862    -0.943106672910
H     -0.011610980494     0.133021577492    -1.075952038924

