# STO-3G

title

0 1
C      2.616126589227    -2.387475710904     0.638176566743
C      3.121856143237    -1.906672296328     1.863637769198
C      3.118171987809    -2.729039549640     3.008716637407
C      2.608378767333    -4.041045470384     2.930421256092
C      2.107451416708    -4.528061443084     1.706061546540
C      2.113500823103    -3.702515279814     0.563124730980
H      2.636694108460    -1.738445126965    -0.232357292728
H      3.516195959563    -0.893875204252     1.918744678330
H      3.510074254585    -2.353678674628     3.951788252070
H      2.607155550947    -4.678541522192     3.811947607182
H      1.722515937847    -5.543680025527     1.642015758094
H      1.731161152040    -4.080779848351    -0.382864174830
C      2.158329142548    -1.189393223615    -3.364091266115
H      3.175198570560    -1.177469327461    -3.746154779237
H      1.986241198392    -1.785895417527    -2.474966143690
C      1.152034482635    -0.464080533398    -3.902888218024
H      0.174482833956    -0.488614162230    -3.440927071621
C      1.276930736627     0.421202419486    -5.071772456328
O      2.376311988159     0.516775641889    -5.683211545879
O      0.142857920167     1.138320272792    -5.495296676295
C      0.327291310797     1.984718449589    -6.638694124143
H     -0.629865382576     2.496837712657    -6.876016578887
H      1.097469566486     2.762725631804    -6.434220986589
H      0.632407385646     1.387205595713    -7.527620892506
Pd     0.186635202124     1.617132687250     0.548458840943
C     -1.638801123604     1.146790172611     2.682558068001
O     -1.065289773496     2.152340002442     1.971371669846
O     -2.472039557563     1.334836779657     3.580839859294
C     -1.132425311936    -0.277571777802     2.291496843750
H     -1.995266492100    -0.954182697351     2.339359890590
C     -0.067939822664    -0.762977884292     3.252833589636
H      0.242358922242    -1.794811980283     2.991703555010
H      0.821914328547    -0.103509182487     3.191134082735
H     -0.458378590271    -0.758558812192     4.292084296922
N     -0.521866902441    -0.223796119739     0.945922713225
C     -0.452812413910    -1.158514644282     0.029658307553
O      0.201005207418    -1.036026099444    -1.092080752450
C     -1.161852835075    -2.436267720571     0.223564248514
H     -0.761821688641    -2.927131375071     1.126350575459
H     -2.240124346739    -2.225952185715     0.316961668623
H     -0.986852302608    -3.086155632231    -0.653811352604
N      3.575014341177     0.299776245202    -0.966590104969
C      4.916820703968     0.561861388747    -0.897196584062
C      5.358413476610     1.862663018465    -0.728448543080
C      4.455529563770     2.903137834545    -0.650782412966
C      3.117263930467     2.610527572712    -0.731040381069
C      2.729846173474     1.259896095909    -0.898503818607
H      5.628329340780    -0.252991542958    -0.962259443527
H      6.416420971121     2.059697601036    -0.675056664022
H      4.796902377457     3.928810683404    -0.538422309881
H      2.367529818114     3.373592505559    -0.719897341604
O      1.394788842994     1.054210438920    -1.005009712396
H      0.853256078370    -0.121828518887    -1.182850221459

