# STO-3G

title

0 1
C     -0.801211041299     1.919813691474    -1.040522575324
C     -0.668249594663     3.178736100701    -0.419698735660
C     -1.000228082227     4.351666988617    -1.131590096370
C     -1.451250250746     4.272371064325    -2.462259824297
C     -1.575004647586     3.013008510688    -3.081200930826
C     -1.249775201374     1.836380890212    -2.375359236862
H     -1.392330395712    -1.403217513000     2.394174645853
H     -0.323148186662     3.263603913738     0.607690766642
H     -0.907525991605     5.318574193138    -0.640778042711
H     -1.707357561787     5.177455735821    -3.008192987918
H     -1.927453858468     2.941657216039    -4.108298478359
H     -1.356429815073     0.871786828941    -2.866327402484
C      0.982801058472    -0.144062723884     3.239097058113
H      0.049382515321     0.302511977527     3.568788179810
H      1.041174295118    -1.228085481125     3.299355316397
C      2.011879383520     0.568256937779     2.730192324787
H      2.897970197060     0.053191536740     2.383310722386
C      2.013189857349     2.023463810179     2.521969373996
O      0.955927406451     2.685293943224     2.713300366757
O      3.142512818975     2.615296325464     1.929961041134
C      3.039297155679     4.015173493368     1.635408105965
H      3.992324737126     4.366173244126     1.184175159197
H      2.219681136542     4.206888431832     0.906630919919
H      2.857150583127     4.602854747576     2.563764128740
Pd    -0.402516086665     0.214913183873    -0.094852595017
C     -1.317375338671    -2.580962589093     0.261672576161
O     -0.372956218422    -1.845546886825     0.920696499772
O     -1.192784252614    -3.761340050649    -0.091437524444
C     -2.628946515688    -1.744171596825     0.067091862274
H     -3.377129607594    -2.181238230041     0.748949143802
C     -3.156452957311    -1.828591677970    -1.343318722487
H     -4.111992110645    -1.268061038879    -1.415422348855
H     -2.426772780128    -1.378290807181    -2.044350237189
H     -3.337360127185    -2.887287650985    -1.624577132697
N     -2.463948341887    -0.302491438367     0.365802832417
C     -2.309251679706     0.097186367711     1.609020883375
O     -2.032537378068    -0.688697148359     2.680557102242
C     -2.556405649742     1.505224091051     1.922254441119
H     -2.870193072520     2.039677301618     1.007076623272
H     -3.366957909849     1.539213203694     2.669490071618
H     -1.634506762748     1.940642681565     2.345362340642
N      1.666604338942     0.265283629580    -0.553762843313
C      2.245497598242     1.304877706385    -1.243843061445
C      3.590299765033     1.285016178743    -1.546148328748
C      4.380183074964     0.229964656936    -1.161382138464
C      3.794085326578    -0.798720605313    -0.480198922200
C      2.413000323978    -0.755718713690    -0.187720513482
H      1.665502430661     2.158498952203    -1.559417561388
H      4.024588717471     2.111742657231    -2.083903297472
H      5.441866684452     0.213170003432    -1.393277234696
H      4.356020251698    -1.651820052658    -0.153670824639
O      2.007766409897    -1.799461271137     0.485608968597
H      0.973405241767    -1.917906770687     0.726692917474

