# STO-3G

title

0 1
C      1.978260489766     2.353800942173     1.202508568076
C      3.124786320684     2.828854223280     0.524962104031
C      3.905834580441     3.857583838030     1.079952655933
C      3.547110486904     4.430929641798     2.316652882507
C      2.405616717632     3.964429078616     2.996506845107
C      1.624591653867     2.934995404169     2.439307739668
H     -1.955736310323    -0.772593975394     1.874374418824
H      3.407235711080     2.379882907983    -0.425778777889
H      4.792309753778     4.206680092166     0.555551008857
H      4.153295058781     5.224399447919     2.747505799744
H      2.130460559176     4.393343428069     3.957215066055
H      0.751291543110     2.567554820589     2.975253518864
C      1.119384546011     1.258538116430     0.573559331488
H      1.758873961053     0.539768657632     0.057970272214
H      0.546334464435     0.720830257497     1.331213308459
C      0.230740059816     1.947921466488    -0.456111426419
H      0.799406312613     2.479973970207    -1.208355379530
C     -1.012035209504     2.644559931744    -0.073963936566
O     -1.783403979609     2.949490757329    -1.022514035204
O     -1.491662366682     2.549261488886     1.243277438503
C     -2.798537916145     3.090896165471     1.478237956472
H     -3.055434441669     2.977573632561     2.553476308054
H     -2.829838052756     4.175064982160     1.226173814763
H     -3.565323515872     2.545507968736     0.882614538961
Pd    -0.706864794159     0.693948377055    -1.884561835758
C     -0.337747123653    -1.518943613890    -0.074023452662
O      0.740053370379    -1.717813223999    -0.719483492405
O     -1.292805787961    -0.663437206293    -0.402598106459
C     -0.568312608241    -2.234412125375     1.275957766740
H      0.398720409061    -2.569780323758     1.658321460835
C     -1.509460684671    -3.412913240599     1.162804078073
H     -1.605703140476    -3.899521289796     2.155552621187
H     -2.510626303677    -3.056574573461     0.844680600329
H     -1.118305410732    -4.149420768670     0.431457862385
N     -1.142665333612    -1.274617062558     2.217231248909
C     -0.422134280340    -0.793495291104     3.268834894737
O      0.736836956570    -1.155301738234     3.576446476884
C     -1.115145548410     0.220968324989     4.090132909519
H     -2.036953771744    -0.238388122467     4.483272792704
H     -0.444404482137     0.521363549188     4.913789031390
H     -1.348868589902     1.084510701494     3.445725229197
N      0.753435369936     1.595884013975    -3.385736452324
C      0.022834548369     1.945226407089    -4.490355182235
C     -0.496581741109     0.960635841694    -5.308097261028
C     -0.218223281507    -0.371492427689    -5.087668054641
C      0.568776807660    -0.706735432166    -4.015669753425
C      1.062386300597     0.318089976792    -3.175025391178
H     -0.201277165824     2.988757152727    -4.680674990817
H     -1.095031859108     1.248381536167    -6.158825632353
H     -0.593110748216    -1.136153810853    -5.764085794802
H      0.887456269972    -1.719858263736    -3.851201305225
O      1.990869048405    -0.042286098287    -2.255449633536
H      1.645723219094    -0.823263157148    -1.696143919882

