# STO-3G

title

0 1
C      1.617290966758     3.778747537411    -0.319730431385
C      1.909556851723     5.146187824180    -0.133423983012
C      1.629224876551     6.079983142608    -1.149169213995
C      1.061500286043     5.654236344805    -2.365222447731
C      0.776306546570     4.288514874519    -2.560317935572
C      1.053687554775     3.358384372507    -1.543411274257
H     -2.890926285546    -0.754227261544     0.780793664630
H      2.352649598504     5.483111809382     0.801789058492
H      1.857251351278     7.131520857344    -0.993210569728
H      0.850220268045     6.374803440137    -3.151170654968
H      0.346586975599     3.948370874960    -3.499158199539
H      0.840782453912     2.300481649104    -1.699392777770
C      1.885691603278     2.789453510699     0.795196185814
H      2.531904535237     1.906917526352     0.293568362907
H      2.626546009244     3.145777098817     1.517202637812
C      0.670316425020     2.156909830899     1.433420627755
H     -0.292553461799     2.413008141934     1.012328466436
C      0.631370735454     1.818464526579     2.866419996814
O      1.694436932437     1.414312051924     3.405984616358
O     -0.607659532314     1.733330977416     3.518258458772
C     -0.586830417307     1.131015011193     4.821142747311
H     -1.616358930166     1.110914572367     5.238121788872
H     -0.230716618900     0.076265966042     4.763289996838
H      0.061848742009     1.706694535193     5.519029316493
Pd     1.372505250018     0.511069884698     0.454889651972
C     -0.410677464238    -1.866678768921     0.763121267255
O      0.495101482039    -2.616910069439     0.261399800141
O     -0.318840313663    -0.568953181239     0.892265128485
C     -1.747430221539    -2.450565971453     1.277674541375
H     -1.541463767468    -2.979791107653     2.215748004131
C     -2.387526706558    -3.406375751130     0.296007009619
H     -3.327826777178    -3.804104965958     0.730606840864
H     -2.628428149468    -2.866802836554    -0.642209068534
H     -1.701995185630    -4.250866273201     0.076518717129
N     -2.689482447293    -1.374862753226     1.557417197180
C     -2.848929611625    -0.902645538412     2.827349684872
O     -2.356710532530    -1.421895226767     3.855073526564
C     -3.710653933177     0.292376487516     2.949579612076
H     -4.687188687038     0.051483024660     2.497385440925
H     -3.826426171148     0.535318852492     4.018836528004
H     -3.219242160650     1.123017008976     2.414420131444
N      1.145370392250    -1.125845322077    -2.810617090354
C      1.036978327146    -0.602870563988    -4.071125595458
C      1.900374375153     0.400391431899    -4.478339929806
C      2.891099272448     0.858449412663    -3.634021195435
C      2.982646508077     0.305241395934    -2.381008303810
C      2.063326279100    -0.706615695593    -2.022846934598
H      0.263868150851    -0.963470815321    -4.739701585896
H      1.803592930634     0.811374188216    -5.470100209346
H      3.582112593565     1.634021884430    -3.954685589713
H      3.754150566381     0.586850951674    -1.693950730892
O      2.215526895377    -1.154055596266    -0.745879872870
H      1.538150517622    -1.911245750075    -0.412492240424

