# STO-3G

title

0 1
C      1.457681178013     2.107345763827     1.559773868996
C      1.079889651362     0.619419133259     1.734326044633
C      2.143606795246    -0.215114414558     2.340262938008
C      3.465034184512     0.155507222144     2.338087564980
C      3.872625694765     1.430143137360     1.741566117389
C      2.946470128181     2.333025891765     1.317892475493
H      1.266536285059     2.562140359417     2.551302654034
H      0.120395796702     0.514194539652     2.251784113080
H      1.842387114620    -1.167671064879     2.772996625892
H      4.225690710519    -0.494903413331     2.763709836715
H      4.934870687310     1.647261602674     1.636359622225
H      3.254232808279     3.283316550241     0.880970677888
C      0.527575891867     2.940869916538     0.635814825801
H     -0.487756518598     2.902522770986     1.054190987246
H      0.856136770677     3.986749634845     0.682266496745
C      0.387982192381     2.512567239375    -0.838162847377
H     -0.011933427599     1.498748771403    -0.882831117131
C     -0.423781045161     3.372546578607    -1.751710595480
O     -0.688039561289     4.564877556286    -1.423408754001
O     -1.148649244972     2.739131507747    -2.783670139770
C     -1.951392315995     3.601997820901    -3.600502917102
H     -2.453012869341     3.001603176757    -4.388540034736
H     -2.735862480662     4.105330612118    -2.991052946108
H     -1.318966184983     4.372237086746    -4.097425570614
Pd     0.514338252292    -0.423601946719     0.018078477907
C     -1.945923598649    -1.910499529663     0.514726345121
O     -1.152954542831    -0.991886480197     1.063602927388
O     -3.002812838212    -2.351398264240     1.018308840707
C     -1.472190629391    -2.489883349616    -0.875370432669
H     -2.391215028126    -2.706251910319    -1.438222999408
C     -0.701106103167    -3.778949673093    -0.692979443693
H     -0.408854221785    -4.185922298818    -1.682834300339
H      0.215224615453    -3.586898896370    -0.098303456334
H     -1.329170859405    -4.528072867078    -0.165951519362
N     -0.560374051446    -1.546479513027    -1.538749798686
C     -0.595232705331    -1.161126283637    -2.762604305756
O      0.288073961040    -0.261504012700    -3.261587334768
C     -1.577483842434    -1.655852089320    -3.739904311064
H     -1.369429429941    -1.197169750749    -4.724763793946
H     -1.478967343501    -2.751928029588    -3.811616505117
H     -2.587504886660    -1.358441926679    -3.406929742500
N      2.243160147422     0.197633896805    -1.021886639176
C      3.176773546519    -0.806045999398    -1.032953322936
C      4.438378036744    -0.578911383909    -1.541258178456
C      4.778612454066     0.663758571794    -2.028163588595
C      3.836146118375     1.653887704847    -1.988672062178
C      2.560784312167     1.385790626047    -1.442444128475
H      2.912833688688    -1.788806083673    -0.660428900197
H      5.161499823687    -1.377239855746    -1.552386648569
H      5.770123338199     0.854780662811    -2.429382877089
H      4.030917237384     2.649227024271    -2.333992637815
O      1.761415524236     2.452482634038    -1.459777830625
H      0.919513954325     0.040128379287    -2.563935823317

