# STO-3G

title

0 1
C      0.416709298401     3.334945108237     0.735620562495
C      1.493632925170     4.080515012858     1.279029352213
C      1.675801600786     5.434516024158     0.944145204277
C      0.786424846753     6.085658558500     0.068335284761
C     -0.299556925698     5.365068272041    -0.466975675322
C     -0.480263663817     4.014556685242    -0.132084060726
H     -3.957116660787     0.564880943413     0.905564806956
H      2.191705420411     3.629020802373     1.977097914191
H      2.510464302827     5.983591039706     1.374861600121
H      0.931849015932     7.133105330380    -0.185135240654
H     -1.000360648223     5.854646356829    -1.139669159367
H     -1.318343225954     3.463718384593    -0.556719829494
C      0.107785668649     1.913071546754     1.040663005197
H     -0.953521961800     1.693666576084     0.920566638077
H     -0.774521792036     0.300351575856    -0.879332168829
C      0.824654560974     0.897117062010     1.705685099140
H      0.262732193415     0.071085404777     2.116467850418
C      2.241403257998     0.941303364622     2.083706556929
O      3.055146385662     1.271949837977     1.178870681119
O      2.663095134950     0.159011334680     3.169529862315
C      4.078714694798     0.106615873168     3.395856191448
H      4.283282898849    -0.519898787965     4.291190667347
H      4.603395323208    -0.352803995331     2.527531913775
H      4.488813338592     1.124658910221     3.583580203687
Pd     1.108009704586     0.653212092741    -0.488041627571
C     -1.872494931571    -1.197672861316    -0.135103969721
O     -1.771877488439     0.048214942846    -0.648020319523
O     -1.028738913860    -2.101024991342    -0.334262407525
C     -3.103665462419    -1.379854610621     0.774137897265
H     -2.822829968067    -2.122915398166     1.526313794663
C     -4.316394875216    -1.872822582694     0.015601972188
H     -5.159212726530    -2.015988927564     0.723149323052
H     -4.611180253180    -1.118434329923    -0.742542758936
H     -4.091731197646    -2.837493242798    -0.484455797119
N     -3.449127878515    -0.128366207759     1.440705653083
C     -2.731694287772     0.255245028500     2.537112359091
O     -1.794719698475    -0.416025099352     3.026840720144
C     -3.097001317045     1.542268970473     3.166833726081
H     -3.358723713160     1.333028992215     4.217131258249
H     -2.212984064203     2.200155894430     3.117040729474
H     -3.953559491666     2.004478712559     2.645874836548
N      1.796690809695    -0.102865242821    -2.307899168162
C      2.623762690366     0.734200279402    -3.010925578066
C      3.282152699044     0.274892895735    -4.131932757615
C      3.115794773653    -1.024384913094    -4.557159315942
C      2.281802724654    -1.839030684060    -3.838188297375
C      1.624396059894    -1.331794358500    -2.697336566756
H      2.761956774354     1.757968586596    -2.681427514074
H      3.932054759977     0.940641247260    -4.676922564342
H      3.631697203713    -1.393206636805    -5.439951583332
H      2.106823383850    -2.859805122103    -4.117206120774
O      0.850378556419    -2.225100661298    -2.108900151668
H      0.251853457970    -1.981027640800    -1.328191968804

