# STO-3G

title

0 1
C     -2.921491767872    -2.246962814861    -2.955089313470
C     -4.194349882038    -2.339547332140    -2.352668278997
C     -5.352548174913    -2.142182022932    -3.132958664827
C     -5.238584788055    -1.856270068584    -4.507232520290
C     -3.965032473528    -1.764211362198    -5.106936193790
C     -2.806635093607    -1.958526332183    -4.331576383504
H     -2.010407749758    -2.418341192446    -2.388306611722
H     -4.274317443575    -2.549515180197    -1.289113148368
H     -6.334727262668    -2.209670563495    -2.670831966565
H     -6.133550538789    -1.705300597822    -5.107032807563
H     -3.878638214120    -1.544555616913    -6.168731044652
H     -1.815730269514    -1.891743839078    -4.771203552484
C     -0.564624579614    -3.586832183180    -0.413689408401
H     -0.222721679773    -4.228262017709    -1.222787980270
H     -1.601205373461    -3.263171286339    -0.427921780640
C      0.212321748966    -3.307657168190     0.698819775321
H     -0.207414589411    -2.729667540856     1.508777843899
C      1.573221420398    -3.817172723042     0.932864107812
O      2.221363319788    -4.310360516619    -0.029047512873
O      2.130913452695    -3.711437349872     2.217632293338
C      3.501171232110    -4.116054689852     2.341775237355
H      3.829673137259    -3.980886422511     3.394738511184
H      3.624483816406    -5.189341842977     2.071970436046
H      4.156406783477    -3.491153156650     1.693080367181
Pd     0.520570476268    -1.624106086737    -0.904033047070
C      1.789208435497     0.578083558634     0.420732176007
O      1.307017391657    -0.670965790738     0.693681201603
O      2.341893505089     1.273705830453     1.287100069810
C      1.601340648053     1.095488275706    -1.061037095359
H      2.582108845659     1.451928158639    -1.405831374693
C      0.601573035375     2.232303838781    -1.117493519715
H      0.532915509430     2.631874737682    -2.148306976140
H     -0.398784790288     1.861689459966    -0.811443669655
H      0.914513678609     3.050712908202    -0.435826338045
N      1.097970185516    -0.003971736257    -1.852949132730
C      0.763332739439    -0.358421746820    -3.066636434827
O      0.190959860994    -1.537752053624    -3.177849086782
C      1.004441173577     0.475542895004    -4.251248680856
H      0.023020955555     0.733648433377    -4.683656842679
H      1.557402059829     1.381716629359    -3.956413313726
H      1.597738861646    -0.119147313554    -4.967558865545
N     -2.946796775867    -1.782775068849     0.853757168236
C     -3.129378509740    -2.255294882739     2.126363331545
C     -2.652804532275    -1.533204415438     3.205385193177
C     -2.007690593461    -0.327889676754     3.011737088371
C     -1.871320686176     0.134898630554     1.728445914101
C     -2.370690668414    -0.648806798006     0.669847079965
H     -3.624277609810    -3.206745811777     2.282176260184
H     -2.779956252808    -1.921092272964     4.202839363009
H     -1.617983326764     0.239060930244     3.853304622926
H     -1.368426064600     1.054249006541     1.506847617746
O     -2.150608069648    -0.117946248400    -0.553993283993
H     -2.506804166387    -0.683699406009    -1.277228948316

