# STO-3G

title

0 1
C      3.715163401349    -0.285491448946    -2.305215549506
C      3.407008084436    -0.548088892591    -3.669229396551
C      3.280187083675    -1.865810175085    -4.123255027511
C      3.464796436067    -2.947303470891    -3.223836430519
C      3.784803528660    -2.704011143700    -1.880236796221
C      3.924629418759    -1.373536863299    -1.413610398467
H      3.928389107667     0.734965535860    -1.992411312508
H      3.285802944307     0.285901976941    -4.354322461997
H      3.055161408162    -2.062856306892    -5.168063163851
H      3.374594846866    -3.969241935956    -3.584491509792
H      3.949324132197    -3.531704965266    -1.195739228105
H      4.240180274357    -1.171623011515    -0.395250656876
C      0.263661462462     0.141803951255    -2.549105447896
H     -0.510311843722     0.851378900818    -2.283456169975
H      0.902658963942     0.470039670554    -3.359871680296
C      0.321456551981    -1.138229818571    -2.009045437957
H      1.044225472940    -1.845691494287    -2.389446264118
C     -0.702160029582    -1.716493387415    -1.119265076963
O     -1.706895712688    -1.038695224704    -0.774254235226
O     -0.509103500303    -3.026713860635    -0.647955681981
C     -1.569891756026    -3.569245117549     0.151554253756
H     -1.307951797484    -4.604890000292     0.458448904072
H     -1.725572413884    -2.963230233684     1.072163973780
H     -2.520474408597    -3.609038846403    -0.427654793413
Pd     1.811519867919     0.138725493083    -0.814933581042
C      2.520341440464     0.546108814128     1.931858663065
O      3.104354576973     0.475984631649     0.708740255663
O      3.158910419473     0.598945547695     2.996329671019
C      0.953440469244     0.522937623375     1.880336477435
H      0.598195700209     1.200324154749     2.666279439435
C      0.406077266562    -0.859855247566     2.149966030653
H     -0.700408140549    -0.839860861838     2.069836211523
H      0.809895312645    -1.577281555562     1.407935516441
H      0.692183363894    -1.190557166449     3.170307315843
N      0.540291705477     0.922789844448     0.523632603877
C     -0.191118420066     1.988144172744     0.175341714269
O     -0.163647026993     2.537829749140    -0.978273044646
C     -1.155373113718     2.529877905889     1.157946123411
H     -1.794003120318     3.274180519682     0.648194685363
H     -1.779407317210     1.693635021866     1.517634756475
H     -0.604166076852     3.021592263113     1.976298786863
N      1.383720864846     2.534857729795    -4.357622988799
C      1.661778040299     2.669182598830    -5.691252779405
C      2.914291572372     3.093604990561    -6.097936224001
C      3.884171990026     3.405946592184    -5.167677755803
C      3.572493416435     3.281777622781    -3.838883777646
C      2.276140835877     2.848804735952    -3.479447640104
H      0.905362773393     2.419791748716    -6.426130343197
H      3.126235375767     3.187426532509    -7.150187114667
H      4.868320417365     3.744855137076    -5.480109264931
H      4.270386384479     3.518023196307    -3.060395901823
O      2.088492638849     2.763440066079    -2.156239575504
H      1.127573784831     2.652350862665    -1.808869947377

