# STO-3G

title

0 1
C      2.127309871558     1.962931304895    -1.601139364086
C      1.276361960812     1.841706818629    -2.736565367912
C      0.509873028338     2.954153881816    -3.167966331246
C      0.592957535805     4.168849957355    -2.480309811696
C      1.449646050520     4.296857680076    -1.358397005150
C      2.208992238334     3.206788553857    -0.921057142297
H      2.791347531642     1.155889346915    -1.307207436228
H      1.302070149222     0.947757640526    -3.352867761298
H     -0.140102753290     2.852146984042    -4.032526154540
H     -0.006264225147     5.016592772519    -2.800069962377
H      1.505439613492     5.244082558252    -0.828835263013
H      2.861533557683     3.296598535421    -0.056216874848
C      1.541345730973    -1.131742174202    -1.304155132436
H      2.058003171197    -0.780142288643    -2.193049872563
H      2.174203785183    -1.320662782161    -0.445589886506
C      0.218125943841    -1.545250597840    -1.350685738945
H     -0.190141881220    -2.028874579671    -0.481071291631
C     -0.634638859809    -1.565713134549    -2.551427091420
O     -0.223819604608    -1.036435192589    -3.617750584817
O     -1.938997053230    -2.075350254479    -2.442205495895
C     -2.749527993463    -1.982518496919    -3.622460693224
H     -3.751649678576    -2.416803705407    -3.416574579757
H     -2.888836175969    -0.919240526518    -3.924350786935
H     -2.291126057058    -2.549541711719    -4.464368890551
Pd     0.252922704455     0.709246927032    -0.614061216267
C     -1.834514804817     2.293593313486     0.547285153594
O     -0.854504503469     2.363060183295    -0.386325139894
O     -2.829678634490     3.040299809150     0.545772432585
C     -1.536539123775     1.261719945859     1.660212881831
H     -2.491747791143     0.915701880691     2.077827587389
C     -0.716166565583     1.934324169283     2.750976368508
H     -1.286859071600     2.778812845455     3.191423018307
H     -0.457574824562     1.221018508244     3.554498931904
H      0.232714678374     2.323145340625     2.321650288706
N     -0.725841889946     0.155228619246     1.092502546706
C     -0.405842209906    -0.970197647417     1.743383537775
O      0.653407591116    -1.652758592487     1.515067694236
C     -1.374029098290    -1.524267760243     2.720075711603
H     -1.004137352932    -2.508481476154     3.061678311262
H     -1.460328698892    -0.848773791277     3.583222560000
H     -2.345720167740    -1.651070629699     2.210671879146
N      4.099200369728    -0.379990211975     0.409941726830
C      5.354863442176    -0.153954664208    -0.086870321418
C      6.098870811639     0.917223508640     0.373981983927
C      5.593191806828     1.754714621714     1.346571695850
C      4.340494827941     1.495338164434     1.839018540172
C      3.624761613170     0.388509055195     1.331655935487
H      5.755292959836    -0.805815431470    -0.854449772099
H      7.081927806230     1.092975428851    -0.031048106879
H      6.174026840163     2.596293302663     1.714559243242
H      3.886896486230     2.096834277806     2.600780231127
O      2.415967574307     0.235767609058     1.884693573337
H      1.884251727926    -0.582180245674     1.609586457966

