# STO-3G

title

0 1
C     -0.909731489907    -2.316648938629     2.512021143186
C      0.293281553617    -2.019093437699     3.202116373960
C      0.345472758671    -0.938318515534     4.086536515162
C     -0.800009216800    -0.129040148020     4.302335744733
C     -1.998618615675    -0.414478317083     3.642287130691
C     -2.063252440392    -1.512282120169     2.739030365318
H     -0.929162771893    -3.197142897038     1.877503948360
H      1.152982910973    -2.649400476508     3.005865523930
H      1.271628856547    -0.703658875477     4.604340515554
H     -0.742523973235     0.715736594225     4.984103536123
H     -2.885824587853     0.186572011327     3.826239856254
H     -3.031168922834    -1.832770668526     2.364191600358
C     -2.599194988971    -2.367814235599    -0.449312583921
H     -2.183356533489    -2.686131991412    -1.397213904520
H     -2.592144776451    -3.113211022496     0.336946248101
C     -3.257047915839    -1.150549135722    -0.317831482532
H     -3.772035452096    -0.910778761053     0.599934768960
C     -3.559322010529    -0.235283556935    -1.435626385729
O     -3.236885102383    -0.536435273385    -2.616040343722
O     -4.304305514863     0.924154072484    -1.157277731395
C     -4.742675396467     1.677870537407    -2.297141457284
H     -5.312759391480     2.568203664377    -1.954018317094
H     -3.877198989327     2.030515703328    -2.901489203861
H     -5.412890725293     1.064196442194    -2.941263370557
Pd    -1.088492306336    -0.873260675885     0.491850433376
C      0.749222269665     1.326016861447     0.473766646056
O      0.387365740939     0.277061232454     1.249959748765
O      1.557736050899     2.200598483573     0.833262066983
C      0.039172678847     1.356637602571    -0.920698311829
H      0.773064976686     1.735946628889    -1.642215615966
C     -1.155647001559     2.282249787981    -0.916436192921
H     -1.629990333929     2.276789119075    -1.917962396734
H     -1.893576850371     1.943907716599    -0.161198513155
H     -0.834809927240     3.316854850517    -0.672978429183
N     -0.435676031564    -0.009381059749    -1.213081182330
C     -0.132886861728    -0.764282071450    -2.272175252641
O     -0.252023164100    -2.040915107841    -2.318730780299
C      0.327995227171    -0.096966202726    -3.510103509085
H     -0.404770231603     0.686456107247    -3.769529873504
H      1.336706073353     0.312424439712    -3.342056279188
H      0.366618909491    -0.843698984307    -4.324828545301
N      1.384551799640    -4.455847381340     1.228697519549
C      2.573739491924    -5.063149195779     1.527491491456
C      3.522232175597    -5.257320918460     0.538894971384
C      3.277714131157    -4.847675373688    -0.754534885523
C      2.075321286508    -4.249898906778    -1.032357643180
C      1.141148434401    -4.077981087732     0.024157189139
H      2.772608619619    -5.383311856387     2.543511574101
H      4.456544191333    -5.731918332893     0.788253184129
H      4.017650212933    -5.001000155695    -1.535457761674
H      1.823657363537    -3.930551811406    -2.023472222628
O     -0.039140056812    -3.506735233021    -0.286959646285
H     -0.099159005777    -2.956990605549    -1.156106823824

