# STO-3G

title

0 1
C     -4.150800331052    -1.447588252634    -0.303809563089
C     -3.787344386640    -0.761356099100    -1.500138871958
C     -3.098157086662    -1.463177652317    -2.520830166552
C     -2.798482876843    -2.819040109003    -2.360082070102
C     -3.172015518045    -3.507039830534    -1.175453447354
C     -3.844283393009    -2.831172716610    -0.156884306779
H     -4.809376697288    -0.985696422791     0.422389492229
H     -4.071707909046     0.269547779883    -1.690466404396
H     -2.810327453908    -0.913963824837    -3.409284403983
H     -2.265124319768    -3.353846947739    -3.141655592883
H     -2.925314633475    -4.559171700089    -1.061548409731
H     -4.144410783837    -3.348628547132     0.751060785230
C     -3.992262170557     1.478790844486     0.858644147629
H     -4.906319592654     0.906960430458     0.743698986364
H     -3.769744259319     2.195113662306     0.077145924923
C     -3.229862400269     1.419989172207     2.011290006926
H     -2.425096263763     2.125793119952     2.129945370869
C     -3.518964676838     0.567370835532     3.173621113435
O     -4.273241811803    -0.431436001643     3.028942072538
O     -2.770165466258     0.750104100431     4.348598504149
C     -3.057390045776    -0.156534423903     5.422990464961
H     -2.416493925586     0.092106254152     6.296350039120
H     -4.122097487744    -0.071844874005     5.738965035680
H     -2.843210776229    -1.207840520270     5.124265754841
Pd    -2.254789407325    -0.088135304022     0.403053835821
C      0.143057182216    -1.655552468431     0.488477040820
O     -0.976598854602    -1.494863741899    -0.254802930857
O      0.979917247971    -2.553658150469     0.283241659754
C      0.278298821855    -0.611050050303     1.640236449317
H      1.348977558747    -0.409781468752     1.770712268486
C     -0.273413829856    -1.145464308197     2.943145209189
H     -0.202601578918    -0.364074566314     3.727807066325
H     -1.337283789982    -1.430002297025     2.812449882699
H      0.303913261453    -2.037960587254     3.263400545504
N     -0.521514540672     0.569971440373     1.266437313864
C     -0.109232062993     1.826157335983     1.138095043931
O     -0.816466013019     2.771141829303     0.627247504399
C      1.215341228013     2.207791951903     1.676460562588
H      1.332369878626     3.303573507313     1.589552558669
H      1.253827243426     1.916739099245     2.740076449191
H      2.000880423822     1.708799538390     1.083121636305
N     -2.512983573096     1.708918582375    -3.510703640448
C     -2.046688439068     1.712529546512    -4.797284201158
C     -0.867089195105     2.365850916078    -5.107208625084
C     -0.154343930365     3.023767749267    -4.127905162055
C     -0.646154638835     3.016135213950    -2.847845029083
C     -1.862236047705     2.328041404211    -2.590787624667
H     -2.600556289234     1.192917249819    -5.570356512407
H     -0.507989292190     2.355511971057    -6.122807091257
H      0.770576014964     3.541694649421    -4.366926856196
H     -0.146692414538     3.530363566276    -2.052653376845
O     -2.324989682121     2.360475819080    -1.327238894921
H     -1.676988478003     2.593342764887    -0.557234298581

