# STO-3G

title

0 1
C     -0.433851342619    -2.581032144261     0.171453528806
C     -1.622497424087    -2.147798870767    -0.464463508765
C     -1.601823344970    -1.781597641809    -1.817861539794
C     -0.396190588161    -1.835592842710    -2.560067762727
C      0.784922943670    -2.268124366177    -1.948997008027
C      0.779847207978    -2.643486941849    -0.576531028772
H     -0.472732381665    -2.920057696272     1.201137691636
H     -2.550230422164    -2.106440058188     0.099361074242
H     -2.518230017027    -1.455749765249    -2.304619681673
H     -0.390683225297    -1.546176258522    -3.607445099362
H      1.715475247699    -2.312762995617    -2.503573178350
H      1.664501441290    -3.133117600599    -0.176470899021
C      1.630715835964    -2.488851875557     2.571195517392
H      1.655463323183    -3.423067969476     2.015984543253
H      0.809599146457    -2.339880751136     3.263113240075
C      2.691289980174    -1.600928752218     2.539495948612
H      2.678790005380    -0.737326847895     3.187931399802
C      3.926711623364    -1.793322877714     1.758916442741
O      4.024500029104    -2.785982891436     0.989127551681
O      4.902097288132    -0.783717437215     1.782659082344
C      5.947866266399    -0.904919252434     0.808329110378
H      6.652909863658    -0.053078322972     0.916572354610
H      6.517984085643    -1.850660605146     0.952108493176
H      5.527474511068    -0.877656027381    -0.224089662348
Pd     1.176912294884    -0.749916668610     0.959597479165
C      0.407230272768     1.962371320569     1.700134200669
O      1.091771187419     0.887445468228     2.208902479781
O      0.139432163224     2.961906399638     2.385092011078
C     -0.022552304245     1.777942284387     0.212567710595
H      0.120996312983     2.747751409776    -0.282411927583
C     -1.482352713762     1.403736491901     0.099057881003
H     -1.752605681293     1.293234934227    -0.971557702505
H     -1.660110959117     0.435494304489     0.606978400515
H     -2.119958600570     2.186563294158     0.560052285028
N      0.762967557046     0.691137487432    -0.374000497216
C      1.778464013568     0.786963756144    -1.262238919250
O      2.685025583188    -0.092947232842    -1.366700454902
C      1.781641838990     1.929420774679    -2.204848475926
H      0.794978623170     1.970068697066    -2.696917290192
H      2.004510687730     2.850284264005    -1.643027962997
H      2.571109012557     1.758670135397    -2.959831968483
N     -1.624089576317    -2.013476427053     3.534014759916
C     -2.923945775590    -2.280361672820     3.197544916837
C     -3.810669357206    -1.240297720403     2.980340976045
C     -3.408630321230     0.068779271833     3.143753151948
C     -2.107811222903     0.308269545899     3.504930607954
C     -1.242088209313    -0.798218801054     3.702529100512
H     -3.246600760970    -3.307195650400     3.070916472414
H     -4.829462589902    -1.462039795518     2.707316249175
H     -4.107632210266     0.888670723976     3.000341559594
H     -1.748574863891     1.302008971270     3.694825850650
O      0.023885786190    -0.518223114299     4.098322268256
H      0.451694230830     0.235995942864     3.589970693210

