# STO-3G

title

0 1
C      1.670196842594    -1.012960751758    -1.900372933513
C      2.162475754290    -2.185931209639    -1.270953088121
C      3.523577813041    -2.254766981342    -0.886811335288
C      4.380058537422    -1.171198610161    -1.134639448825
C      3.890774850085     0.000177158584    -1.766533476240
C      2.546051507719     0.079311340199    -2.146296509659
H      0.675817193318    -1.029373150562    -2.325438584734
H      1.504842852707    -3.041060216722    -1.150325695550
H      3.902403304209    -3.148730877022    -0.398063344058
H      5.425553410000    -1.231371152958    -0.842267207660
H      4.563013382312     0.832382770260    -1.958365725763
H      2.170456420527     0.973594619142    -2.636554253835
C      1.838946982519     0.332877159017     1.220880705847
H      2.728660399390     0.064760471002     0.661579476992
H      1.515339012744     1.365300661664     1.152082513924
C      1.289929909374    -0.518367913358     2.175409988340
H      0.494036121933    -0.132625303161     2.787155923453
C      1.826061922184    -1.824399205252     2.593479837422
O      2.855123004448    -2.293090451663     2.041728199793
O      1.133064843494    -2.546874282220     3.579955895415
C      1.676483832174    -3.832191660487     3.913437620227
H      1.049388631848    -4.305259330685     4.699573995014
H      1.681880324620    -4.502633065390     3.023859403929
H      2.713244053638    -3.733614453141     4.308419486837
Pd     0.182683400664    -0.779248200822     0.100030431306
C     -2.029712438444    -2.516353362399    -0.452868485982
O     -0.890566569303    -2.076312108700    -1.035060854462
O     -2.564606598155    -3.606468805710    -0.722698338105
C     -2.666026959494    -1.469074225705     0.499582263979
H     -3.243642892657    -2.003885430629     1.265973002319
C     -3.595921009091    -0.579231489903    -0.312004803040
H     -4.133475185142     0.144077338941     0.326588704494
H     -3.000525351167    -0.008245935307    -1.053519926280
H     -4.347313737819    -1.197388087806    -0.847450144130
N     -1.597132728246    -0.620984303106     1.084844002440
C     -1.774436842907     0.316043615462     2.017700791951
O     -0.982088935904     1.304447907819     2.206979967076
C     -2.861651071784     0.136549003304     3.010593268636
H     -3.841692114850     0.225675975921     2.523120634272
H     -2.734105280170    -0.855278633181     3.477024074163
H     -2.770925374761     0.920330860368     3.785748293822
N     -0.680664741673     1.444745823140    -1.303904009198
C     -0.888234006704     1.287799748415    -2.648853824697
C     -0.543181997665     2.298963808774    -3.525772662283
C     -0.005401416274     3.479112985153    -3.057389227765
C      0.171345662207     3.620158899887    -1.705924940471
C     -0.202200047377     2.559443452064    -0.850900184866
H     -1.305457422766     0.360798171848    -3.025086065165
H     -0.699610321187     2.159180810782    -4.582983235065
H      0.265895844267     4.278569313795    -3.741720016017
H      0.570354583603     4.513805009404    -1.269352362209
O     -0.001779951522     2.815924281637     0.441200624682
H     -0.404588505529     2.144228285308     1.117156919367

