# STO-3G

title

0 1
C      1.499548935836    -1.263410445156    -0.290959013366
C      0.912538563546    -1.942995833341     0.812620641657
C      1.456378322636    -1.796108125389     2.106896326398
C      2.605640856668    -1.006829229475     2.294847777381
C      3.219768712015    -0.357028590351     1.196314154479
C      2.671487201464    -0.484080883605    -0.087432871409
H      1.196138524449    -1.497164812292    -1.314413610509
H      0.072572807347    -2.609961552014     0.644328472836
H      1.001025895374    -2.308015015024     2.950461577277
H      3.034632320700    -0.907394481978     3.289638484310
H      4.123396741273     0.227113161036     1.351194901569
H      3.117774597262    -0.017950353363    -0.960864283319
C      0.448548524611     2.061106477651    -0.387244676359
H     -0.238958025349     2.692452553545    -0.943824233659
H      1.376877047468     1.811033053186    -0.889210411410
C      0.217774339100     1.705870256439     0.936254991564
H      0.956235008398     1.131939455213     1.473980850374
C     -0.896166032031     2.224322450674     1.749829578220
O     -1.445007647350     3.315290599128     1.441253154126
O     -1.200841360338     1.567389177021     2.954969722898
C     -2.329493261585     2.086005462548     3.673094251164
H     -2.490302602650     1.486158314550     4.594163726643
H     -2.156062121061     3.144686508398     3.972994160165
H     -3.253072155925     2.027128884565     3.051604502475
Pd    -0.569160102559     0.036231791028    -0.466712356086
C     -3.428997053787     0.035461765351    -0.457817910444
O     -2.376371985751     0.896662448777    -0.396579514576
O     -4.603960644666     0.404246163714    -0.300531530811
C     -3.029705219714    -1.456357039520    -0.708954737464
H     -3.786243752314    -1.875749226574    -1.384337388458
C     -3.035493024734    -2.249916942763     0.579277153223
H     -2.736508674056    -3.298331769868     0.374371609772
H     -2.317603443186    -1.803704399573     1.298050414732
H     -4.051586570673    -2.242414957348     1.027027572124
N     -1.663038190433    -1.484185533517    -1.246491518967
C     -1.215757894019    -2.060094443795    -2.360548165515
O     -0.067251160811    -1.803259628453    -2.875681635755
C     -2.048972355195    -3.084610076766    -3.025917897624
H     -2.309826937244    -3.858737474770    -2.284714904323
H     -2.944169595273    -2.592712873934    -3.440583752632
H     -1.466627341725    -3.537324567783    -3.850111573704
N      2.593439784635     0.887406411250    -3.099316463705
C      3.723705242793     1.625679478239    -3.331059184371
C      3.626531555560     2.885229872151    -3.893879283368
C      2.396383703415     3.403816246302    -4.240315328756
C      1.283639019404     2.635334073469    -4.019334638158
C      1.441351570026     1.350741483329    -3.453293130665
H      4.692065955014     1.228365671841    -3.050139440371
H      4.521159718563     3.462033780711    -4.061195572829
H      2.312104091285     4.393523668465    -4.681330352726
H      0.296777328543     2.968509173944    -4.273009985771
O      0.285388141499     0.697529383583    -3.290779531366
H      0.315914561378    -0.306799733048    -3.109151758933

