# STO-3G

title

0 1
C     -0.024815342919     0.549363080973    -1.819749113430
C      0.881963871798    -0.135313787547    -2.658047396296
C      1.106040958731     0.324818390206    -3.972096178819
C      0.426703084370     1.461517247558    -4.451479634427
C     -0.477150271257     2.146774718422    -3.613129989460
C     -0.701232208282     1.690201775355    -2.300864313816
H     -0.240644260147     0.200124372338    -0.810421033514
H      1.404660306891    -1.015527368081    -2.293568101703
H      1.803463224437    -0.204738412700    -4.616873315602
H      0.598028701356     1.812203088276    -5.466717767515
H     -1.000263374223     3.028949803660    -3.975585142203
H     -1.390421845824     2.226286439280    -1.648834581058
C      2.088864130856     1.316774438006     2.220355757976
H      3.166823018436     1.390564884801     2.085175628390
H      1.716219049589     0.901441484824     3.149026406487
C      1.185313155188     1.940274698660     1.364292457001
H      0.143898014100     2.009667887180     1.638222397411
C      1.584043701836     2.741177040438     0.195978027557
O      0.761614469343     3.552819981005    -0.301080889837
O      2.809945531740     2.455613168992    -0.429664432808
C      3.032940948983     3.106898051657    -1.688379997950
H      4.022429220601     2.802897981102    -2.092210862359
H      2.254041572898     2.812061130489    -2.428596682515
H      3.028115263056     4.214117738467    -1.569658933431
Pd     1.631149663657    -0.308139733214     0.731056589904
C      1.694681986865    -3.139426496564     0.212657797787
O      2.139093850260    -1.942972273360    -0.261187595725
O      2.147828563013    -4.228138002821    -0.167705346307
C      0.512183228810    -2.975776486076     1.194367727726
H      0.548320517915    -3.806806776801     1.910428494020
C     -0.800415714842    -3.021577589561     0.435358850736
H     -1.658930334879    -2.878226286189     1.120157177713
H     -0.818251782868    -2.206321070235    -0.316097651754
H     -0.910168236688    -3.997498824281    -0.082445318152
N      0.610156524422    -1.650140041711     1.856354951852
C      0.004807673513    -1.284314803613     2.990616232806
O     -0.145346250541    -0.082802608911     3.385265167047
C     -0.472905614691    -2.349395192574     3.906269004264
H     -1.270407129318    -2.925689035428     3.412517070109
H      0.386652315218    -2.985682420311     4.175781781737
H     -0.880847739432    -1.879419284930     4.820757379196
N     -2.336379853497     0.101423180141     0.647105531928
C     -3.114427958066    -0.181211101906    -0.445259516980
C     -4.048487192203     0.736278645104    -0.890104734541
C     -4.210789977179     1.940942923021    -0.239417835045
C     -3.430076241907     2.194658081544     0.857124364663
C     -2.495142288092     1.220486829388     1.270979961331
H     -2.987218540820    -1.120824838959    -0.969215378627
H     -4.643951190714     0.507582045620    -1.758469464823
H     -4.937832020004     2.669770254848    -0.587354511399
H     -3.498351138023     3.108884952712     1.412045222024
O     -1.790470616303     1.585376929289     2.353872405145
H     -1.182015161864     0.875071585001     2.748170145684

