# STO-3G

title

0 1
C     -2.369478144325     0.621661186979     0.866078113600
C     -2.286543557880    -0.643591780961     1.482114144494
C     -3.187263980214    -1.668173252598     1.131249219275
C     -4.184763060196    -1.426818035924     0.164637770759
C     -4.278506594818    -0.160066504853    -0.445854927889
C     -3.372608922013     0.861602480218    -0.094091129366
H     -1.683812874470     1.406473429721     1.168734058730
H     -1.529242893103    -0.820594185245     2.244426701323
H     -3.120909278069    -2.640568862793     1.614377472649
H     -4.885534704079    -2.214087841138    -0.103790953357
H     -5.053436793117     0.031437018402    -1.184561062934
H     -3.459030482776     1.842694179702    -0.556080444978
C      1.701311145541     2.969480426430    -0.517627016108
H      2.307713093679     3.708465265774    -1.043338245587
H      2.191127388866     2.382576804304     0.247236302075
C      0.313712660937     2.930972863770    -0.633026424123
H     -0.237357546304     2.311268548922     0.052475922357
C     -0.478534764203     3.838577781748    -1.477363197528
O      0.095510430404     4.419584855971    -2.436148679435
O     -1.879120943977     3.765601398686    -1.409432177772
C     -2.596981423861     4.596626402570    -2.332657966911
H     -3.689215767497     4.468009271598    -2.171653950297
H     -2.347813032451     5.670713015781    -2.175258762245
H     -2.365925886803     4.313253589713    -3.384871676823
Pd     1.300437460299     1.548936506870    -2.223361301961
C      0.859248864655    -0.709220713684    -3.926132268585
O      1.463169729943     0.509704094677    -3.899661757132
O      0.828418240418    -1.432668407459    -4.931359080566
C      0.193312747103    -1.080662370559    -2.570155170873
H      0.344682231366    -2.157082834759    -2.423234380174
C     -1.291463856701    -0.793025191285    -2.576355252159
H     -1.742449377071    -1.138829183171    -1.625007608099
H     -1.465691267034     0.298286909097    -2.671961564307
H     -1.783219269663    -1.321858702557    -3.419388923421
N      0.807236878053    -0.256705176004    -1.502226627949
C      1.164119619574    -0.617790898433    -0.268241397203
O      1.745373745770     0.138222902963     0.575943450396
C      0.854330831334    -1.999371716847     0.168528335088
H      1.141104712048    -2.111570145278     1.229221453727
H     -0.230773453419    -2.165760447664     0.060841195294
H      1.440108825593    -2.706179029277    -0.443922627732
N     -0.993625795788     2.144411774179     3.709083201251
C     -1.553732464823     1.823887355227     4.915254803377
C     -1.052187727545     0.763855065422     5.651710137379
C      0.019702260828     0.032416955305     5.185020328825
C      0.563595208076     0.373864467103     3.972545687613
C     -0.000123829070     1.469790927062     3.263636702192
H     -2.393669270217     2.398441035685     5.287778292932
H     -1.501452100262     0.521040882143     6.600344420832
H      0.425129863384    -0.791433717460     5.766268891881
H      1.411871231105    -0.142479213419     3.572244858156
O      0.556433830981     1.788813395850     2.070768443380
H      1.112403242588     1.082071934368     1.614929697388

