# STO-3G

title

0 1
C     -3.408283453677     0.454434048748     2.476710357752
C     -3.787401893188    -0.662804556575     3.247012851335
C     -5.117874113339    -0.798148823648     3.691796920546
C     -6.069565944634     0.189772235531     3.368698461976
C     -5.690540440167     1.308709356063     2.598671352111
C     -4.360837559817     1.440982048768     2.151750136273
H     -2.379742203178     0.573486613819     2.151784007004
H     -3.050859220327    -1.426373583004     3.494322751065
H     -5.409813740986    -1.662835963731     4.284088013109
H     -7.096672237089     0.088407168658     3.712885642731
H     -6.426409913489     2.070304889622     2.349413088973
H     -4.053130966640     2.295040575282     1.554459655129
C     -2.770276935978    -0.485769578416    -0.857579772100
H     -3.622359863271    -0.150400827062    -1.446208391735
H     -2.694326768576    -0.052432634327     0.129981023861
C     -1.962761660061    -1.559899840966    -1.228745499878
H     -1.249421221718    -1.943104550275    -0.514350861787
C     -2.135473142848    -2.346664267197    -2.460710980958
O     -2.745852275690    -1.822511255523    -3.428918492860
O     -1.343471533555    -3.492640773484    -2.636662503161
C     -1.466298475009    -4.151797693384    -3.905435059991
H     -0.807630258547    -5.047106139634    -3.921025796932
H     -2.513830396614    -4.488539506065    -4.078121354409
H     -1.152923862051    -3.478062530225    -4.735448799912
Pd    -1.054107547971     0.423468272814    -2.021880793533
C      1.370723957313     1.885514906680    -2.452391908048
O      0.157845680735     1.642153680034    -3.027292374509
O      2.255837461511     2.567779112202    -2.986903837100
C      1.510851210500     1.194607935527    -1.058993974833
H      2.162693767687     1.812228500286    -0.429340823987
C      2.138531546379    -0.176148060249    -1.176935761908
H      2.322651521691    -0.595123202625    -0.166057583910
H      1.466166839835    -0.860480483427    -1.733362796799
H      3.110226662123    -0.105757967249    -1.709910648994
N      0.139935616658     1.019298136674    -0.490042725591
C     -0.492738865817     1.982893410705     0.284652806413
O     -1.730519144197     2.145249668521     0.320512283935
C      0.346701858393     2.755492411217     1.227309433492
H     -0.321501628731     3.304183936138     1.916134078125
H      0.961893103308     2.046872013069     1.808224185049
H      0.960959990440     3.476125090114     0.661808257663
N     -0.151821985844    -0.061267428054     2.994065172910
C     -0.253379728247    -0.034012520857     4.358878381238
C     -0.287988627988    -1.220480477759     5.071310231911
C     -0.221178051017    -2.433576054467     4.415501187565
C     -0.126849256001    -2.427395432401     3.047029401207
C     -0.096467821558    -1.185601696445     2.378222594313
H     -0.307942616705     0.916540603431     4.876446734893
H     -0.370602846460    -1.190608657052     6.145362374114
H     -0.249182433990    -3.368556183263     4.968694004545
H     -0.080338994292    -3.327732672750     2.468602763534
O     -0.031214094460    -1.281828500395     1.032368991960
H      0.018370005194    -0.382567947999     0.575883292983

