# STO-3G

title

0 1
C     -1.517134574238    -0.246114128728     1.635212757225
C     -0.918146970695    -0.640307005272     2.864229905641
C     -0.549838178377    -1.973897415791     3.074642571158
C     -0.779524297125    -2.937476893505     2.065457447089
C     -1.381567310461    -2.570588944992     0.851450182644
C     -1.759465832141    -1.228322253181     0.632950553631
H     -1.950059986217     0.745691781888     1.542888941741
H     -0.751713072314     0.102431659817     3.641571737258
H     -0.072378341773    -2.269588454620     4.004875827368
H     -0.472371945977    -3.967592346630     2.226669546603
H     -1.544945480727    -3.312344177856     0.074761668461
H     -2.269843096234    -0.954934319170    -0.287995259427
C     -0.170698463965     2.459770542211     0.330663420437
H      0.733685023943     3.009515388425     0.092095916720
H     -0.464857644870     2.443749145266     1.377612741625
C     -1.052052716001     2.047028001640    -0.675609695440
H     -2.019664795090     1.654952999789    -0.396689172999
C     -0.920440861541     2.406728534111    -2.099945136241
O     -0.031153311818     3.232493974984    -2.445366700880
O     -1.988928939776     2.092708188748    -2.956036308748
C     -1.777895118642     2.394723528227    -4.341757437484
H     -2.669104798991     2.081886372160    -4.926537985333
H     -1.627960195513     3.487827341864    -4.492495846692
H     -0.893925966586     1.839853684958    -4.732559598698
Pd     0.346363446195     0.308856819675     0.158417555001
C      2.867994831983    -0.972399298330     0.641216992553
O      1.533466907150    -1.200285720092     0.780630929832
O      3.738694627933    -1.742651515290     1.082294425465
C      3.187226469627     0.358475120992    -0.121384980144
H      4.086937610240     0.189089286016    -0.726875047707
C      3.463100783970     1.499655291889     0.830684984661
H      3.649838895411     2.427613546328     0.251212813555
H      2.589017794715     1.657827042421     1.492754989107
H      4.355187959635     1.270745550606     1.450689571918
N      1.995281600017     0.709409595537    -0.913167309085
C      1.819539283389     0.519635768611    -2.245267539437
O      0.693537866242     0.301576483446    -2.778208493978
C      3.004469050859     0.658977047805    -3.123612770226
H      3.498843029399     1.615778257591    -2.882848620237
H      3.668204764248    -0.205355370226    -2.963715871526
H      2.662537940182     0.670141163618    -4.174841521854
N     -3.495323653312     2.368887382998     1.662412135072
C     -4.500823323841     1.693126660486     2.304091054835
C     -5.529733430608     2.393653760853     2.907742208556
C     -5.556752474627     3.772879490395     2.866399290515
C     -4.539693140669     4.421752472448     2.214821552730
C     -3.519423621507     3.653915517465     1.617740997207
H     -4.485198647211     0.609745143084     2.340225231522
H     -6.315212922487     1.853406303855     3.410575596474
H     -6.363326468263     4.329482646806     3.336311738244
H     -4.495687039134     5.489713321853     2.136595064533
O     -2.574299258851     4.392353468218     0.998556001793
H     -1.890104544261     3.833773774143     0.570570874554

