# STO-3G

title

0 1
C      1.071744073587     3.269992650558    -1.783700695932
C      0.261461951747     4.398718244133    -1.506120172581
C      0.746653710358     5.444201450820    -0.702591841627
C      2.053719213200     5.379284184255    -0.175542211869
C      2.882384033099     4.277756395321    -0.468505026469
C      2.398689054737     3.232123814482    -1.276877150451
H      0.804184137955     2.581672372527    -2.614571195055
H     -0.729822008520     4.476946286469    -1.944843844069
H      0.117410590060     6.305832685690    -0.495335676328
H      2.424147871588     6.184242561853     0.454054704508
H      3.894429912192     4.239150342553    -0.075572520071
H      3.039917047018     2.397314524503    -1.540465587539
C     -1.242288364353     1.894127281198     0.379830199566
H     -1.160767825844     2.975915266550     0.379382195886
H     -0.860386105819     1.377674267167     1.253000082901
C     -1.970056670530     1.187739642467    -0.569525508234
H     -2.086663696611     0.121993830610    -0.446894877715
C     -2.757894651878     1.785288791845    -1.661789732968
O     -2.751544645957     3.033128686624    -1.828408276838
O     -3.442996683647     0.933270827358    -2.543095868428
C     -4.126004698505     1.572623187814    -3.630786830442
H     -4.627371870064     0.801506992186    -4.254709515601
H     -4.904150144025     2.274192733308    -3.253081840145
H     -3.408245581263     2.127791978008    -4.277077408017
Pd     0.294868256792     1.035732567147    -1.108190545839
C      1.110061665198    -1.605630633644    -0.408295707963
O      0.012920365307    -0.799739731115    -0.365166114506
O      1.153878665701    -2.675892508044     0.221733367791
C      2.275492613899    -1.080673526808    -1.299042763015
H      2.583581180620    -1.927589734635    -1.928053808319
C      3.458765323043    -0.643233032590    -0.464694159121
H      4.281735603954    -0.307536290712    -1.127725020600
H      3.162852445250     0.199877251281     0.191387384470
H      3.817227701934    -1.484924563720     0.164274925102
N      1.801491939593     0.081134599292    -2.057836314818
C      1.902247767495     0.328905084161    -3.377529798997
O      1.275672284122     1.264888762688    -3.965804105168
C      2.821905593749    -0.506857851899    -4.184548686571
H      3.823809967528    -0.468609192459    -3.725689806654
H      2.421514611246    -1.532836597137    -4.221513554310
H      2.865221723209    -0.094398266000    -5.209874162977
N      1.464321231866     0.419333340745     2.196049890073
C      1.371058599282    -0.689912616440     2.995922147488
C      1.082681763430    -0.543904968719     4.342444121776
C      0.882379649273     0.709555686223     4.885113516913
C      0.977138661135     1.798255699957     4.055721542465
C      1.276042915340     1.583587380944     2.695369182326
H      1.533344307964    -1.675964184724     2.579867549775
H      1.011455766808    -1.421133182466     4.964394616376
H      0.652804622831     0.829828992873     5.940489163705
H      0.829423184301     2.801429459067     4.401965147264
O      1.318598321659     2.718689390127     1.954925694767
H      1.489572400937     2.519564080809     1.007352837291

