# STO-3G

title

0 1
C     -2.544246119712    -2.652402770655     0.561192684716
C     -3.923028051146    -2.798648030951     0.854184779506
C     -4.879040749514    -2.461380108789    -0.113693737173
C     -4.476001779611    -1.926457976403    -1.364687630311
C     -3.118707787948    -1.760374270250    -1.657898869248
C     -2.137867116676    -2.149415220821    -0.704966460095
H     -1.786836166225    -3.003088268075     1.251224469137
H     -4.227122705565    -3.200207604239     1.817427536573
H     -5.937605669135    -2.598641074308     0.095338825712
H     -5.227032667273    -1.645961757627    -2.098319483126
H     -2.805168034666    -1.322467072107    -2.598165216649
H     -1.094657923022    -2.198441639469    -1.010126789652
C     -1.875980240705     1.710716167426     0.773418529408
H     -1.672784843989     2.003423014732     1.798495625343
H     -1.246387074279     2.162547075798     0.017621295952
C     -2.980539764418     0.958678125877     0.414147622874
H     -3.203261568610     0.827366516892    -0.635586412503
C     -3.992059257244     0.509235319767     1.383769514608
O     -3.645543317758     0.309579753096     2.580715603955
O     -5.331789776968     0.387168923938     0.978067493642
C     -6.264605621969     0.009689054919     2.000138364909
H     -7.282181826683    -0.061856252123     1.559623232143
H     -6.000974530077    -0.983012489287     2.429882440633
H     -6.289663033093     0.770434075802     2.812839406467
Pd    -1.050310460288    -0.461383809172     0.766731538163
C      0.973988399357    -1.741971053086     2.325521470989
O      0.171829729464    -2.000790527158     1.258990526543
O      1.642951759215    -2.611645451596     2.908042270096
C      0.976160471167    -0.229147269313     2.730387119138
H      1.980764752610     0.014242185693     3.099773854347
C     -0.022536607459     0.067525752550     3.825983941949
H      0.008271602303     1.148480478981     4.073822017858
H     -1.049131636256    -0.190048636462     3.491082410860
H      0.222103192485    -0.520941522032     4.734985367827
N      0.561829859673     0.524867801556     1.537428886972
C      1.308587344846     1.297305572524     0.751363122370
O      0.992253854822     1.656938059115    -0.436150542230
C      2.578222186045     1.833930791184     1.289664319759
H      2.363160956393     2.352319123861     2.239817716570
H      3.282244388766     0.996298022343     1.427487817787
H      3.004578927651     2.550459582386     0.563062375911
N     -2.714283101937     1.307746666670    -2.896903904681
C     -3.390269527495     2.159963220686    -3.727089837343
C     -2.729765898162     3.222146353340    -4.318349880141
C     -1.386381056798     3.427693106021    -4.086038572084
C     -0.727335296516     2.554439678697    -3.259700014225
C     -1.454596741487     1.479560943538    -2.684618752284
H     -4.447449782042     2.006281785404    -3.909059580013
H     -3.274153892517     3.889026644259    -4.966058582717
H     -0.862162861721     4.258272097753    -4.551135312871
H      0.320208958855     2.653155030061    -3.056192067951
O     -0.769503174662     0.632159395278    -1.894996893431
H      0.024866601124     1.028586197820    -1.362477937545

