# STO-3G

title

0 1
C      1.376626428313     1.994272874422     0.497817043274
C      0.117077791601     2.014892822634     1.152345796297
C      0.000235257654     1.495938282792     2.461911836269
C      1.128569312558     0.987060072461     3.121148494883
C      2.392135905007     1.003464960268     2.488180915681
C      2.513223063860     1.505310046429     1.188670350342
H      1.521683865997     2.457610131869    -0.473587386640
H     -0.751912919316     2.470111048856     0.688579234269
H     -0.969574355626     1.493821504152     2.951722148929
H      1.032500777353     0.579362686569     4.124169767104
H      3.265082248711     0.617693477171     3.007328582995
H      3.485457679151     1.538297562023     0.704517362850
C     -0.372434183853     0.760201933403    -2.908638030226
H      0.609529646136     0.903088951339    -3.346636127712
H     -0.905753344501    -0.143041964811    -3.174389734669
C     -1.033491326556     1.743979748226    -2.182481051981
H     -2.037369668543     1.532716932484    -1.848010312786
C     -0.584429978720     3.145000797697    -2.069742786345
O      0.547476853844     3.484156366867    -2.514707051851
O     -1.374962869250     4.044221968342    -1.335210021038
C     -0.833259375500     5.360275217597    -1.156062955076
H     -1.549119576980     5.975136049262    -0.568478350594
H      0.128364025506     5.319541689586    -0.595482969792
H     -0.672091852635     5.859976106010    -2.138200502022
Pd     0.080648323740     0.130253202428    -0.755250972637
C      0.758314482647    -2.459224841938     0.275222129846
O      0.923091131333    -1.146444014664     0.553669231163
O      1.372023081573    -3.358561520291     0.883768672175
C     -0.214476555201    -2.739475230081    -0.905724691824
H     -0.814543500997    -3.614563490605    -0.621154425434
C      0.540141950841    -3.063377634950    -2.177523060489
H     -0.177051955400    -3.289143627071    -2.992347159007
H      1.155536403454    -2.189663616065    -2.478761737676
H      1.201898205710    -3.940453057797    -2.019606934793
N     -1.010071722485    -1.528978014214    -1.152702734960
C     -2.336925264265    -1.412911512912    -1.354947218689
O     -2.952180524270    -0.316255354878    -1.507249546244
C     -3.134225839266    -2.661913881286    -1.441685013211
H     -4.179566851756    -2.392713447999    -1.679462154685
H     -2.719431411850    -3.285865390510    -2.250127411261
H     -3.102457032965    -3.172162524457    -0.463972315998
N      2.949982944857    -0.318026030783    -1.871178020015
C      3.746571573960    -0.983789684778    -0.976057621382
C      4.999099727102    -0.481892263024    -0.663309487561
C      5.451324273449     0.685644018837    -1.241514389711
C      4.626408064122     1.335931719950    -2.125875376275
C      3.359258044781     0.762205373835    -2.408382027276
H      3.403446635487    -1.905892918718    -0.524330216521
H      5.617651408115    -1.016241694346     0.039234409127
H      6.437138759772     1.077201269157    -1.004824279614
H      4.939864489811     2.225667690375    -2.631106700653
O      2.579927237002     1.391128153099    -3.352358421624
H      2.663140634030     2.365298629895    -3.356411509387

