# STO-3G

title

0 1
C      1.369289931912     2.279354179601     0.252543391801
C      0.216374691718     2.340092129676     1.085357020691
C      0.270339737329     1.822823412853     2.398339342467
C      1.465186637203     1.281158397556     2.890362519142
C      2.629336112888     1.263079029947     2.085414821597
C      2.581879445925     1.757133746654     0.780314402432
H      1.409139331023     2.790099682301    -0.703987353935
H     -0.689649779759     2.838190204286     0.756681722028
H     -0.617534140871     1.849728712814     3.023456543401
H      1.502394964830     0.880000983507     3.899724157074
H      3.558521886630     0.865710392323     2.484953942883
H      3.474530891801     1.768012677524     0.160890954948
C      0.145546210898     1.607519263266    -2.897576599722
H      1.093683330965     2.135981073547    -2.952632136176
H      0.022344136694     0.722898135678    -3.515431141813
C     -1.001263295624     2.137723359848    -2.325679783362
H     -1.909658386088     1.570955226873    -2.453802518031
C     -1.149965683898     3.517941119697    -1.830779298725
O     -0.169636562908     4.307754297029    -1.870351702314
O     -2.357802854534     3.884584744157    -1.214573928526
C     -2.426680909564     5.229704064879    -0.719728491069
H     -3.424555903760     5.403418445555    -0.261992742835
H     -1.651157221213     5.406691882238     0.060135480828
H     -2.292411960602     5.963232219603    -1.547122474153
Pd     0.060978726147     0.497718779257    -0.872917636114
C      0.478420270494    -2.027291904638     0.413889314877
O      0.500809428661    -0.698705927915     0.651023307112
O      0.977851874092    -2.845024705552     1.211377870008
C     -0.237358889343    -2.443990873073    -0.893816158512
H     -1.046225786657    -3.119750093347    -0.573966342343
C      0.696280026991    -3.212293675184    -1.810757699475
H      0.162083081531    -3.577182548178    -2.707653747368
H      1.520386227154    -2.556361589497    -2.144591843108
H      1.127315079078    -4.084154590039    -1.274832612738
N     -0.737728578539    -1.248664107842    -1.612453676090
C     -1.774951301816    -1.238820382521    -2.483506714675
O     -2.087177027215    -0.260628510207    -3.224393749632
C     -2.659924857264    -2.432442182538    -2.557351028226
H     -3.466588452724    -2.224482493245    -3.284599281037
H     -2.082589207597    -3.300561479138    -2.905339932186
H     -3.108810265110    -2.603447980055    -1.563831607213
N      3.141321619687    -0.983775834998    -1.054202376509
C      3.951573359454    -1.362715483681    -0.017759432351
C      5.267406852416    -0.929025665337     0.013733507579
C      5.764319066543    -0.121341903603    -0.991571700379
C      4.919061341861     0.245142206484    -2.010002009404
C      3.591764953869    -0.226601442124    -1.979548397574
H      3.563427897655    -1.996377612968     0.771011651688
H      5.901683373037    -1.229938016525     0.831111215197
H      6.795801839640     0.220169034747    -0.972574792543
H      5.228164373335     0.875505913947    -2.819198019598
O      2.809610192894     0.207367748857    -3.002577238685
H      1.888801748981    -0.104991909130    -2.856057478204

