# STO-3G

title

0 1
C      2.024840366267     1.440738492657     0.881936335358
C      1.068603402199     2.465578005881     1.128691217653
C      0.409656937646     2.536892288533     2.386746350535
C      0.705676853304     1.599628657876     3.380264965491
C      1.670324175497     0.589788397706     3.138454292465
C      2.320983440243     0.505315858714     1.899911741429
H      2.549238308149     1.373299059640    -0.065925270483
H      0.986580475549     3.299552770994     0.440595282283
H     -0.310546177486     3.330429837350     2.569886723846
H      0.193901233880     1.638786321750     4.337964319887
H      1.889935261247    -0.136173300545     3.917329095419
H      3.033307479703    -0.289220774939     1.702233431041
C      0.706949752972     2.043779602926    -2.180468936520
H      1.492145814848     2.689991691687    -1.797913959417
H      1.012790918730     1.265503988893    -2.871789994967
C     -0.647327108647     2.342068606281    -2.068206531289
H     -1.325231230382     1.696502564485    -2.604689284638
C     -1.227703363448     3.565056251389    -1.485011291440
O     -0.472644037414     4.481015427366    -1.064355177494
O     -2.624119561103     3.660224102964    -1.371874434174
C     -3.126440419886     4.866425660515    -0.779461183428
H     -4.236757735484     4.825929284938    -0.748013947373
H     -2.753758733187     4.980938567431     0.263763215790
H     -2.828641920836     5.756216219938    -1.379550093329
Pd    -0.052113994633     0.756803836922    -0.416849765346
C     -0.768654304979    -1.645782001242     1.005093055431
O     -0.505112212659    -0.332189967119     1.182882196968
O     -1.151074856355    -2.385378125382     1.930060569932
C     -0.494259317508    -2.150171489272    -0.432735809523
H     -1.249274790699    -2.921137987614    -0.627308315846
C      0.876885518872    -2.792708923664    -0.513232746746
H      1.077090049446    -3.147879064574    -1.544244973440
H      1.656226070186    -2.057192602471    -0.221564902649
H      0.930914502175    -3.660130421368     0.178165260919
N     -0.540870197129    -1.009684221579    -1.393834425616
C     -1.139708303210    -1.050434644618    -2.620516810572
O     -1.248035245065    -0.059266360333    -3.391209462925
C     -1.638118156670    -2.352801199223    -3.131781028653
H     -1.982486800735    -2.208646940408    -4.172859628741
H     -0.808553509293    -3.078197201756    -3.125641319062
H     -2.493085821467    -2.680662499745    -2.516664957657
N      3.531731320929    -0.333339064971    -1.400162539934
C      4.856610865105    -0.191448548802    -1.079960240230
C      5.827311419805    -0.384225707817    -2.046031544168
C      5.473490795436    -0.721820470504    -3.336072960339
C      4.141176533849    -0.863377296369    -3.626297262302
C      3.196301902882    -0.657587013068    -2.599179130496
H      5.140079094772     0.078482283610    -0.069234490502
H      6.866358334221    -0.266185577725    -1.784961393618
H      6.230661107981    -0.872520208656    -4.101080186820
H      3.791688154932    -1.124738520364    -4.605249877267
O      1.924955862067    -0.830129240958    -3.003504699229
H      1.237778380782    -0.750841345675    -2.289810636572

