# STO-3G

title

0 1
C      2.443667259231     2.267789902737     0.760468646683
C      1.839834879287     3.387959303231     1.354557677554
C      0.826708293315     3.208214256230     2.323965804014
C      0.408643315702     1.914063258277     2.689386361204
C      1.027763975956     0.786031743008     2.112028804139
C      2.054934754887     0.959994690609     1.147331070477
H      3.205427219709     2.390313359119    -0.002991766963
H      2.150624270918     4.389728452421     1.069697523833
H      0.360476776532     4.076327386672     2.784029812346
H     -0.384656956563     1.781723145588     3.419440761278
H      0.743408433232    -0.219700940008     2.406792977307
H      2.619269621484     0.096438557662     0.805073625889
C      0.674508570509     1.857962238938    -2.062870601896
H      0.447443581789     1.435179095269    -3.037940412946
H      1.714582570347     2.088290520515    -1.856257282588
C     -0.331470527446     2.346602945844    -1.232829669674
H     -0.055060671054     2.873036106237    -0.332097923203
C     -1.747915907316     2.476709068400    -1.617964143898
O     -2.107102239228     2.150264105987    -2.783835425562
O     -2.595168846612     3.222947994170    -0.780493913438
C     -3.980812326613     3.225888155506    -1.148484777513
H     -4.556609056139     3.820549079032    -0.407760542813
H     -4.124573017166     3.684519997554    -2.152862419692
H     -4.386072110195     2.187909332750    -1.150633985772
Pd     0.468119019091     0.190173182849    -0.580680128971
C      0.889452057719    -2.624271732289    -0.891468667631
O      1.064837832164    -1.647078131154     0.036528751184
O      1.400594885229    -3.753381848109    -0.783321932712
C      0.014537575360    -2.186436202771    -2.113044088422
H     -0.658688284906    -3.023056689506    -2.340972825765
C      0.855668973136    -1.906916164110    -3.335282803273
H      0.198364624173    -1.604493412187    -4.176475871747
H      1.563808419968    -1.085363184636    -3.119603738596
H      1.426976298146    -2.814352773551    -3.622820582883
N     -0.693702307128    -0.946387360202    -1.754907681056
C     -2.014003035819    -0.830724789726    -1.457645135239
O     -2.481898517781     0.014221512915    -0.643479994482
C     -2.963245357884    -1.682977528448    -2.212109223551
H     -3.986749128752    -1.315398151566    -2.016712770866
H     -2.731533663889    -1.580672442553    -3.286051034161
H     -2.875103413925    -2.724577916797    -1.862819665137
N      3.795205164188    -0.933472068071    -1.709440947091
C      4.266767889161    -1.952275053433    -0.922540537629
C      5.268466418566    -1.698057110951    -0.000496173387
C      5.798575868456    -0.429842282550     0.129246763964
C      5.306877690842     0.564572373073    -0.679084176431
C      4.284052021426     0.240254037477    -1.592148910654
H      3.865093947251    -2.952073506574    -1.028742739814
H      5.628703505221    -2.502522577687     0.619920061769
H      6.584436685583    -0.225629915045     0.851598231344
H      5.673424015203     1.570339238683    -0.639394710316
O      3.837643319037     1.296951628582    -2.331520883623
H      3.167226754426     0.979586771410    -2.972134682125

