# STO-3G

title

0 1
C     -0.935008400804    -0.558004697167     1.894473274822
C     -1.877442963887    -0.483849531662     2.938716626907
C     -1.759713805113    -1.330880825946     4.058686803074
C     -0.696842317561    -2.253194628702     4.135091292585
C      0.248209485434    -2.326455184110     3.091995878284
C      0.129332441195    -1.480293045796     1.971906951757
H     -1.030147109243     0.102324077538     1.034977199700
H     -2.693485730791     0.233030592338     2.876706248272
H     -2.489678205012    -1.272024617067     4.863116828610
H     -0.606112474073    -2.907974622031     4.999122519073
H      1.071769619947    -3.034678723938     3.152174501536
H      0.864508295290    -1.531042871273     1.171707376089
C      0.801454899283     2.832508739137    -0.670973368679
H     -0.159658970797     3.268268984715    -0.411034084382
H      1.193853919811     3.087558423112    -1.647879002154
C      1.561529968098     2.128925888396     0.251493108719
H      2.547050667253     1.778911536501    -0.024751726352
C      1.228135179944     1.995263347263     1.681056333183
O      0.152687526031     2.480519935187     2.120939746773
O      2.127206526390     1.318432391044     2.521482643559
C      1.727253375095     1.193264755694     3.894123892050
H      2.504018225838     0.631092053927     4.454989786435
H      1.610075522039     2.194942554137     4.365850045678
H      0.768696676540     0.632688372243     3.980565440941
Pd     0.365414516531     0.615144541662    -1.074499988157
C     -2.422453045679    -0.002844283720    -1.682501263944
O     -1.657091942168     1.036783938794    -1.209470319163
O     -3.636603842039     0.112441233845    -1.894483030535
C     -1.649590886663    -1.342139705137    -1.987795064935
H     -1.837785980788    -1.566723200620    -3.048649625421
C     -2.166118376610    -2.484680123337    -1.138651316685
H     -1.678023809341    -3.432882943604    -1.435820375218
H     -1.949524548822    -2.286550324519    -0.069302954213
H     -3.262956923419    -2.593825001841    -1.271794597227
N     -0.243942738301    -1.144395431306    -1.705153340456
C      0.925408317937    -1.688401668672    -1.938106091190
O      1.965905772897    -0.988762462280    -1.551690615239
C      1.080011486789    -2.975990037974    -2.627977739582
H      0.626064933229    -3.758299043958    -1.998741202477
H      0.571684881544    -2.902379785173    -3.603479802811
H      2.158425636529    -3.174018559237    -2.765071972889
N      0.494418528425     1.505748228932    -3.591743114464
C      1.500009257275     1.183758480145    -4.462531960948
C      1.693566640148     1.941839108738    -5.602517279643
C      0.877672856469     3.021772291106    -5.872380753102
C     -0.122878038821     3.318552579230    -4.983280974955
C     -0.282549573927     2.508936185934    -3.838749898356
H      2.146006584704     0.339386439353    -4.251212235921
H      2.489610563264     1.684613427920    -6.281719767059
H      1.024778916694     3.622105165234    -6.766283615745
H     -0.796206332854     4.139978969765    -5.128118845342
O     -1.280360532344     2.894410159527    -3.035731016586
H     -1.490271112595     2.255747195875    -2.279746136757

