# STO-3G

title

0 1
C      0.229044502406    -0.467395972014     2.292829110157
C      0.198817154633    -1.821378811170     2.684082072385
C     -0.644090551082    -2.229161969119     3.737007509080
C     -1.452302100146    -1.283937518333     4.401712019491
C     -1.418449170502     0.070207934075     4.012063270915
C     -0.578979408017     0.478533170210     2.956181012935
H      0.892641253087    -0.163506541538     1.487956207306
H      0.838137906815    -2.534253118671     2.169216707941
H     -0.663479502832    -3.272845786621     4.043183097501
H     -2.098267375651    -1.598010136838     5.218670652850
H     -2.040504843398     0.801366767614     4.523089439112
H     -0.565600899650     1.523675868387     2.653584078989
C      1.179172818904     1.896682082512    -0.199119681859
H      1.029963402167     2.247382128644     0.820306155520
H      1.927741145484     1.113871723095    -0.358493279967
C      0.572749467512     2.527773672770    -1.277579341566
H      0.834083574027     2.227787823517    -2.284039825918
C     -0.291549671658     3.718661697566    -1.170099183937
O     -0.391320820504     4.320495977159    -0.067092089573
O     -0.866491958993     4.236271684589    -2.342793808239
C     -1.803256381288     5.305709450479    -2.151864960164
H     -2.209115678371     5.621487804085    -3.136661124294
H     -2.656084655505     4.971922661385    -1.516079418137
H     -1.311313945150     6.185620115335    -1.678565435421
Pd    -0.643095503882     0.630144731471    -0.717119046191
C     -3.447632150821     0.969393052114    -0.327056220977
O     -2.289038501281     1.701449974169    -0.357027175774
O     -4.558532274026     1.510862935234    -0.239664791203
C     -3.288777786035    -0.602351127380    -0.406117654106
H     -3.989101273946    -0.963625718465    -1.171514732493
C     -3.613860957475    -1.250346355826     0.923026380849
H     -3.603531076898    -2.352902802296     0.824015837271
H     -2.859540597225    -0.947547679065     1.678665891467
H     -4.621016154654    -0.933781445295     1.266318894432
N     -1.906787091593    -0.881811030554    -0.738162767721
C     -1.090097685258    -1.846331975360    -1.056354532243
O      0.164253471268    -1.486831352664    -1.248849644527
C     -1.515786858630    -3.242511883250    -1.200282985790
H     -1.854985465481    -3.599890403177    -0.214342740874
H     -2.333332510911    -3.275535298092    -1.939517657324
H     -0.654127251521    -3.842168579947    -1.545914161758
N      3.467393710863    -0.264035766712    -0.513779935778
C      4.661118315442     0.408316007121    -0.496750928910
C      5.751623007476    -0.130312348376     0.161239770603
C      5.651540645921    -1.348640242325     0.799698617495
C      4.450441189958    -2.007140361461     0.756042069712
C      3.371140345188    -1.414371915496     0.064637757512
H      4.743593876727     1.369867255409    -0.989986586726
H      6.683320938468     0.410859066593     0.174654487774
H      6.503716973423    -1.776760293060     1.320747881587
H      4.301388421436    -2.959251197063     1.223548106159
O      2.255570182025    -2.153869899103     0.083438601670
H      1.489240614277    -1.840943173967    -0.496270932560

