# STO-3G

title

0 1
C     -1.705367112421     0.856513203087     2.183072997553
C     -1.520357775931     1.701505629095     3.296259570255
C     -1.998444250917     1.319229837855     4.565672456534
C     -2.669784844943     0.090235175938     4.720837492603
C     -2.863679280462    -0.750290416156     3.605761702491
C     -2.382369676454    -0.370571482587     2.336909065045
H     -1.319756945088     1.142076007952     1.207332066833
H     -0.999073684333     2.650032096771     3.172572240508
H     -1.851906248290     1.975219157470     5.421322798623
H     -3.043740460038    -0.205372527951     5.699012824659
H     -3.391384289489    -1.694558415120     3.722625156805
H     -2.533803165621    -1.008374870423     1.471165712703
C      2.008907093693     2.036741154358    -0.904969699698
H      1.114853803290     2.619550987475    -0.696237722832
H      2.573178125773     2.321995249540    -1.785653618997
C      2.508582313316     1.118214416986     0.015203892720
H      3.452572491142     0.623515730274    -0.163482644400
C      1.948139792892     0.926995441504     1.363084176217
O      1.229990249298     1.830191376092     1.864218104047
O      2.378648003539    -0.173255933440     2.122336798975
C      1.720854115602    -0.347323877698     3.386535701992
H      2.133118364202    -1.242472737958     3.898884958913
H      1.881580140528     0.536021540465     4.045624945146
H      0.626372815035    -0.503746179618     3.246159417208
Pd     1.364446797342    -0.037591998285    -1.605617875226
C     -1.079388127339    -1.506445684998    -1.096285917942
O     -0.412132196115    -0.394171792121    -0.643252057582
O     -2.218257377284    -1.797606350336    -0.702228091559
C     -0.317856221589    -2.392164002687    -2.149854486176
H     -1.010711111201    -2.548607222345    -2.989721338989
C      0.059546460794    -3.733625533622    -1.556527884409
H      0.528178381669    -4.373791819046    -2.329378007221
H      0.779549816592    -3.581874884632    -0.725433532568
H     -0.844795930679    -4.247818347033    -1.168174233416
N      0.891847653886    -1.701492293422    -2.535126968664
C      1.822226724645    -1.702328613224    -3.460644478443
O      2.722810897077    -0.755052860839    -3.371422810690
C      1.832005916344    -2.668741453929    -4.567587102220
H      1.966135511703    -3.676493334676    -4.143151255799
H      0.869961281333    -2.584550244757    -5.099562802573
H      2.671734769077    -2.422123867439    -5.242226296893
N      0.025042321814     1.467670987095    -3.243942218811
C      0.474476454367     1.784795166405    -4.497185420783
C     -0.025901560511     2.898019512162    -5.147161754714
C     -0.980741620943     3.691052230526    -4.543251896937
C     -1.413812541387     3.345606921659    -3.289125790905
C     -0.873812758176     2.197657237399    -2.672443942553
H      1.226717354784     1.166259673984    -4.972903319697
H      0.334687176622     3.143851609735    -6.132341917461
H     -1.378884018673     4.567006436718    -5.048420288886
H     -2.153469486926     3.911906859673    -2.758693991491
O     -1.358196866775     1.955969411820    -1.447999456907
H     -1.064659748240     1.080127780320    -1.048342043276

