# STO-3G

title

0 1
C      2.423055593885     2.411450039211    -0.427810833453
C      1.521786284615     3.493360311640    -0.505390074650
C      2.005045132127     4.814694157747    -0.425768831814
C      3.384940034777     5.056350230422    -0.269445660541
C      4.285057616180     3.974223722589    -0.197435581771
C      3.804212870570     2.651876785573    -0.277448659192
H      2.047490125961     1.394203536440    -0.482548656491
H      0.460780237309     3.303640222960    -0.636224594521
H      1.309302011165     5.648529865800    -0.486792320539
H      3.755637491744     6.077581205638    -0.208765306243
H      5.351349043539     4.159291285175    -0.083549772762
H      4.490142174604     1.810084945329    -0.233234091017
C      1.328579916437    -1.900541630341    -2.366890804846
H      0.586346404297    -2.523583483886    -2.858517671784
H      2.099609414786    -2.420177631113    -1.802266629280
C      1.373965017786    -0.529180632085    -2.555010180787
H      2.182308838781     0.049174773940    -2.132736313895
C      0.436406351737     0.234960908366    -3.397725364676
O     -0.567403998715    -0.343906872562    -3.895137558912
O      0.716577558044     1.583596422722    -3.668290091803
C     -0.351957086239     2.335116684292    -4.258197749081
H     -0.022227994416     3.385853913186    -4.405640195248
H     -0.636238582452     1.913923635432    -5.248810153647
H     -1.240658005233     2.344624185307    -3.585801832445
Pd     0.174588983401    -1.072471413527    -0.561789026663
C     -1.285729118985     1.258993988699     0.260919045209
O     -0.454451312739     0.837788845297    -0.738517436104
O     -1.867775155778     2.353520134500     0.207608348386
C     -1.419401374625     0.291806689420     1.495421030344
H     -2.484662876174     0.225076056892     1.755459379546
C     -0.639613528848     0.822680450939     2.680271242539
H     -0.734639340951     0.130954419976     3.540912759755
H      0.432210265332     0.912580501475     2.405221902575
H     -1.025356866847     1.821915969114     2.972615058513
N     -0.853932964490    -0.981507252912     1.109309870056
C     -0.811268029133    -2.244010237438     1.460395995004
O     -0.114656345478    -3.037463736919     0.682668612640
C     -1.503606401377    -2.770515805529     2.645379585558
H     -0.738087415838    -3.193741009704     3.316471302530
H     -2.056446415741    -1.958032613093     3.143262640775
H     -2.197731058591    -3.559647893534     2.307447164936
N      3.154476788519    -2.611997524688     0.420079806512
C      2.671585640947    -3.313484420971     1.492718649638
C      2.423114623480    -2.656936843013     2.689046623950
C      2.632121609603    -1.295973307814     2.797157143900
C      3.102618462016    -0.621837601309     1.698759719823
C      3.363547954591    -1.354968128447     0.524726580066
H      2.492127526098    -4.378695479043     1.405139590164
H      2.058060424758    -3.218552533557     3.531986482833
H      2.431553756258    -0.773171086950     3.728406821072
H      3.298675335322     0.432231371727     1.711215220643
O      3.843272680139    -0.612190040427    -0.510698682382
H      4.063346757629    -1.204638819367    -1.260115277503

