# STO-3G

title

0 1
C      1.497415068238     3.985664472745    -1.106448928354
C      0.572436158436     4.898843926137    -1.657635639789
C      0.527414530089     6.228813141384    -1.197722587603
C      1.411129486191     6.654107580066    -0.183812756971
C      2.341404235397     5.749176977515     0.362331061975
C      2.388673874505     4.415800388471    -0.098700726912
H      1.531127144311     2.968018959322    -1.489050526480
H     -0.098391326874     4.572492839687    -2.451164975751
H     -0.187180817056     6.926968620031    -1.627770903188
H      1.375561674104     7.681150924789     0.171922991098
H      3.027255878487     6.075875300548     1.140146977414
H      3.114785784906     3.721358550667     0.318685454411
C     -1.626165186038     2.256395527992    -0.049137810552
H     -1.149825471287     3.185007905771    -0.354919248949
H     -1.506653571303     1.982731298147     0.991929949741
C     -2.440744774145     1.524241946449    -0.901722291714
H     -2.961034553834     0.658344710060    -0.519555289508
C     -2.801982401778     1.933110986600    -2.270891018394
O     -2.281956127254     2.963705904004    -2.774761109733
O     -3.650985636592     1.101308658638    -3.019630405138
C     -3.924832335226     1.530288492749    -4.361122300660
H     -4.604568979808     0.799596291203    -4.850270917533
H     -4.424251111185     2.525827223777    -4.364543833229
H     -2.986249964970     1.585789683802    -4.958583281777
Pd    -0.320358377002     0.589783676413    -0.922797076355
C     -0.061066285983    -1.931658990054     0.387948181067
O     -0.880287364296    -0.834851404694     0.369605837449
O     -0.269701239089    -2.889841023854     1.149780642726
C      1.136485673275    -1.937431314609    -0.649043086855
H      0.954968989542    -2.790669534101    -1.320326680243
C      2.474835635014    -2.122480216527     0.033075416216
H      3.266283774937    -2.293320059710    -0.722233302350
H      2.719960630190    -1.211933966535     0.614330120347
H      2.441704927871    -2.996317506812     0.716861936493
N      1.130511708031    -0.670133485261    -1.349929662501
C      1.669878021276    -0.044301293216    -2.370026585863
O      1.174923799350     1.133380076987    -2.653612526960
C      2.764120334816    -0.621323088100    -3.162045914903
H      3.643199819861    -0.723528274728    -2.505600330959
H      2.430975253795    -1.600490437639    -3.543113141957
H      2.991460408560     0.064487061042    -3.998510757471
N      2.973010597631     1.519428680967     1.942261187644
C      3.877797134407     0.702402458885     2.565715936261
C      3.435130056747    -0.377589861251     3.311095734928
C      2.083313411577    -0.632008516506     3.440486995192
C      1.203999977939     0.213951815924     2.815948394594
C      1.717519776786     1.296422924444     2.073554496094
H      4.939068557048     0.895788112057     2.462317552348
H      4.152426510856    -1.020994127353     3.793355162787
H      1.725441531808    -1.482856281866     4.014694892882
H      0.141412483610     0.066935049993     2.857870341099
O      0.763854327406     2.066620477067     1.499484632480
H      1.150431127596     2.806782234965     0.976798103269

