# STO-3G

title

0 1
C     -2.593053717051    -0.912030777282    -2.083592498225
C     -1.602642301103    -1.564992861348    -2.861435335205
C     -1.478581749454    -2.956669194938    -2.809044874843
C     -2.337999331134    -3.721643018273    -1.981204468342
C     -3.325827510433    -3.093560480254    -1.214660865771
C     -3.463422726012    -1.680669390876    -1.260334922126
H     -2.719298278655     0.158837979536    -2.193515878521
H     -0.933174807724    -0.965925577872    -3.470851193529
H     -0.707532651123    -3.454787567730    -3.389847713516
H     -2.222015112076    -4.801330800726    -1.938546448756
H     -3.996184814640    -3.681353134688    -0.593061370577
H     -4.316718011222    -1.209870840452    -0.779807780439
C     -3.154949454059     1.248446867140     0.401672226154
H     -2.580959644238     2.159109410041     0.515273223821
H     -3.682589196354     1.162899089736    -0.542296810790
C     -3.392909836938     0.360384378665     1.443313281733
H     -4.087592332851    -0.456215525315     1.305719172438
C     -2.992106214734     0.581357361406     2.846636604887
O     -2.419259916171     1.649914831581     3.189642612747
O     -3.381989265687    -0.374589723904     3.801517688860
C     -3.151788940461    -0.021472541596     5.173348215184
H     -3.489652647274    -0.851850611170     5.830299960297
H     -2.069983256628     0.156362703464     5.365202100201
H     -3.726327546026     0.892860075817     5.446408369953
Pd    -1.663346096721    -0.530047865800     0.163863462002
C      0.640792134116    -2.107025437912     0.826948855922
O     -0.255543722286    -1.934156854480    -0.175893546572
O      1.491703708955    -3.013751806124     0.834969519231
C      0.493809289503    -1.069572353618     1.989666079074
H      1.508483620493    -0.814115247429     2.318925100619
C     -0.262309618838    -1.649315462748     3.162694771835
H     -0.335499378959    -0.888541270993     3.965162693136
H     -1.283045040494    -1.944087086780     2.845870691624
H      0.269689372978    -2.540909351750     3.555850274240
N     -0.267183914922     0.081949658293     1.471823873075
C      0.135274630560     1.358654300943     1.392891066171
O     -0.340643470627     2.215589691493     0.578074663712
C      1.146343505085     1.836818843464     2.361853098848
H      1.222623635574     2.935908468060     2.271948354184
H      0.794084330566     1.576656829442     3.374450635754
H      2.122246698395     1.381601210293     2.126754445687
N     -2.740391127859     3.563608045873    -1.644729334611
C     -3.662300709588     4.377430409658    -2.245323913817
C     -3.840059342282     4.327369881646    -3.616944541612
C     -3.083103759652     3.470927746029    -4.389924513072
C     -2.158630456059     2.676169099069    -3.763049246933
C     -2.014981436684     2.774862188615    -2.360608136991
H     -4.262121682343     5.048278814452    -1.641474945164
H     -4.571837607242     4.968328492499    -4.079983616420
H     -3.214478480794     3.429468597178    -5.467870341402
H     -1.527576743567     1.995897703586    -4.298666335125
O     -1.085283438904     1.947570459996    -1.854953604018
H     -0.841715283215     2.089206019932    -0.870609482860

