# STO-3G

title

0 1
C      1.704208002919    -2.429648013869     1.835454097690
C      1.969736852421    -3.741777608510     1.386314319337
C      2.847307706368    -4.566709067024     2.116251881232
C      3.464641966882    -4.080873838219     3.287408463277
C      3.202576605816    -2.770058000094     3.732891008927
C      2.320279066575    -1.943148043728     3.008467376437
H      1.044856354415    -1.776418956488     1.267294487775
H      1.496734598804    -4.098226035330     0.475211239956
H      3.049094608562    -5.579549923931     1.775322604635
H      4.142292449307    -4.720156875592     3.849079891304
H      3.677140149345    -2.396827184641     4.637391654891
H      2.098360304537    -0.933437060413     3.343114639121
C     -2.309095090775    -1.942363577337     0.262231815105
H     -2.478954789034    -2.696703986111    -0.501882561278
H     -1.931747846786    -2.288204031001     1.220482509755
C     -2.721853490965    -0.625802174939     0.115821829921
H     -2.616399987551     0.052721353614     0.947982912911
C     -3.428589011379    -0.084318182304    -1.055253137726
O     -3.401178448231    -0.723364025065    -2.141001722410
O     -4.037056629131     1.178263208441    -0.962081127857
C     -4.622561636695     1.684050412344    -2.169727543110
H     -5.068369955689     2.682514342677    -1.971279029640
H     -3.850231882917     1.801851248556    -2.963435325358
H     -5.429047810030     1.007635380272    -2.533175941621
Pd    -0.520937096358    -0.853118765224    -0.633250822835
C      0.806837151136     1.682040206813    -0.477679962381
O     -0.415983216050     1.124343557090    -0.230423652734
O      1.091947169410     2.822495380020    -0.079668022872
C      1.828478468291     0.796846951836    -1.292942547428
H      2.790262977039     0.832800250778    -0.762712154688
C      2.007169908504     1.323697189887    -2.700513108529
H      2.771043959811     0.725653148879    -3.235419816205
H      1.043341083328     1.253761085368    -3.246673425280
H      2.336648069082     2.383538110416    -2.671511638425
N      1.278717396374    -0.536763933139    -1.361752387557
C      1.601618375632    -1.779190666254    -1.623384452604
O      0.659767325056    -2.669668578476    -1.407132836552
C      2.942801087187    -2.171081645955    -2.072381101230
H      3.136200439331    -1.687178617162    -3.043151200201
H      3.664952470698    -1.838930853327    -1.307615608846
H      2.971346197919    -3.270761019544    -2.176525959161
N     -0.375202122186     0.208873442194     2.800086879936
C     -0.625048539968     1.556053278306     2.777977967256
C     -1.815783773994     2.041986558556     3.292259718762
C     -2.754460970703     1.181423135811     3.823979432051
C     -2.474824672475    -0.161899206392     3.826974534568
C     -1.243535013744    -0.594299526554     3.292569062690
H      0.111010787990     2.237254360254     2.369151570711
H     -2.005892780939     3.102329235652     3.262984562944
H     -3.692112468005     1.557907052826     4.223837154677
H     -3.155758309940    -0.891063870178     4.217269270646
O     -1.079196960193    -1.942649050916     3.313357646818
H     -0.181457859117    -2.195761773016     2.994129872133

