# STO-3G

title

0 1
C      2.183332731505    -0.679707901907    -0.537669382666
C      3.547609186852    -0.367486347517    -0.363767049611
C      4.358704466048    -0.065302754450    -1.475813349664
C      3.808396731508    -0.081744199701    -2.773365709821
C      2.448872671114    -0.405788733937    -2.954703105641
C      1.640646560123    -0.705325056758    -1.839087047042
H      1.577238772387    -0.928992212099     0.329687791858
H      3.974545554858    -0.369331309410     0.637632670120
H      5.410523271435     0.174077078773    -1.333974603535
H      4.433066060582     0.149657247515    -3.633373453553
H      2.024414632225    -0.426047131070    -3.956145301344
H      0.593756039050    -0.960548641931    -1.989531725839
C     -1.793036481255     0.320102742236     2.300145529525
H     -2.854559071400     0.409108600286     2.536389112700
H     -1.082946624167     0.548908011216     3.085416137014
C     -1.337346935528    -0.308599374626     1.141509962287
H     -0.292485987739    -0.553993047360     1.072469270593
C     -2.214558171174    -0.904132688585     0.122015008914
O     -3.400808619321    -0.491054842069     0.028179716638
O     -1.643936034700    -1.711001911480    -0.876857574229
C     -2.541144346400    -2.181904861167    -1.892337328443
H     -1.981413044254    -2.815301917279    -2.614049940678
H     -3.354975787557    -2.798367455317    -1.447189741283
H     -2.987968510605    -1.329592732056    -2.453372246330
Pd    -1.527946115689     1.992112758476     0.834919594457
C     -0.584176929837     4.370785429057    -0.469402708445
O     -1.716781726988     3.754777534091    -0.039437316714
O     -0.575868515522     5.496301301606    -0.988258334012
C      0.686345410131     3.497170955500    -0.281767470103
H      1.505799025144     4.174640656546    -0.010554106455
C      1.048281115407     2.775607893267    -1.562612921768
H      1.998442104374     2.220533128991    -1.432554759790
H      0.250031003326     2.050949934733    -1.822908812258
H      1.171583354701     3.502491920413    -2.392557860439
N      0.421164370761     2.473646298873     0.759101098684
C      1.277246208237     1.942470428967     1.638931670096
O      0.980705300949     1.030529827511     2.464178319841
C      2.664371036908     2.461806385715     1.668427157215
H      3.120485252875     2.317989209570     0.675535734157
H      2.631648407452     3.525730563605     1.955211480527
H      3.242943264777     1.897112996938     2.422702048019
N      0.730936398805    -2.360737092948     1.927647070505
C      0.592949275822    -3.590270112430     1.342184029305
C      0.715581999966    -4.737553402715     2.105167172742
C      0.980120423061    -4.653408699560     3.456707009812
C      1.120669894999    -3.409630161073     4.015737960018
C      0.989803995782    -2.271490661287     3.189968935358
H      0.381030126884    -3.659377678800     0.281393789229
H      0.602629446525    -5.700437279118     1.635773970889
H      1.076487269009    -5.550396932374     4.062374228886
H      1.329051756821    -3.266594806281     5.056521891500
O      1.150006750077    -1.113216214208     3.837670284418
H      1.137884275767    -0.282689126042     3.266494021842

