# STO-3G

title

0 1
C      2.651395932899    -1.979852424381    -0.444456353084
C      3.471556880051    -1.065618227481    -1.136172981510
C      3.888407111399    -1.340105909089    -2.454466265190
C      3.485655713673    -2.533856249043    -3.086950270473
C      2.669972942034    -3.453206492549    -2.396620938337
C      2.256970273099    -3.176118234398    -1.077541837673
H      2.331949581578    -1.770697758763     0.571605445632
H      3.778950189475    -0.150180455127    -0.636590654411
H      4.524203543147    -0.632846230527    -2.983671234292
H      3.807577943185    -2.747072101375    -4.104301720906
H      2.363424986134    -4.377439729379    -2.882593940134
H      1.629466441968    -3.886449981546    -0.543892136684
C     -0.676974088985    -1.197963936039     0.390617540696
H     -1.694919561732    -1.589418159745     0.457531284906
H      0.073891480773    -1.688198419086     1.004655831893
C     -0.300525682986    -0.309326777528    -0.605669360449
H      0.744634822675    -0.066127478634    -0.700499645540
C     -1.190317219337     0.229019545553    -1.643462890079
O     -2.433906864489     0.212883182661    -1.441315247377
O     -0.633049651025     1.000086377480    -2.677311912093
C     -1.562247364839     1.545160117201    -3.624849509143
H     -1.005770808297     2.118138674646    -4.397727923699
H     -2.128494049894     0.733540619967    -4.135724945929
H     -2.277651775162     2.238808628299    -3.127782438533
Pd    -1.083400065135     0.837733044518     1.332124765061
C     -1.329158880967     3.601114998927     2.030665451421
O     -1.786210190117     2.368856687802     2.384294083917
O     -1.744477827658     4.655487122986     2.531794275613
C     -0.239180515268     3.541253220971     0.911468217007
H      0.492520065145     4.332326623992     1.116522320945
C     -0.833840965466     3.768058263555    -0.460056335060
H     -0.044023301073     3.666171309566    -1.232874152889
H     -1.624264462372     3.015340844378    -0.655198327748
H     -1.276062112011     4.784487205975    -0.520130240960
N      0.346160199861     2.187186932646     0.928236223722
C      1.618596539777     1.807162522030     1.057854860244
O      1.986565728456     0.611521236012     1.312334808881
C      2.675220636496     2.813849418637     0.819531528603
H      2.506926858106     3.266707665877    -0.172476104147
H      2.633222184047     3.563104354944     1.626987859121
H      3.659604116453     2.310467494492     0.839339841411
N      1.181311911474    -2.664909189264     2.608735662355
C      1.204325827627    -3.998496063733     2.916161055954
C      0.713606425425    -4.436031354910     4.133857621720
C      0.208406556797    -3.535367814781     5.049965909915
C      0.210822572386    -2.204230869321     4.721275118674
C      0.733438375398    -1.815451849455     3.469607106767
H      1.593909121219    -4.709661795509     2.197118560185
H      0.730426869220    -5.488291938207     4.364964787685
H     -0.177760559384    -3.872130249574     6.008355320938
H     -0.155137795702    -1.445983436753     5.384482039527
O      0.698668388515    -0.493798721070     3.241856446610
H      1.242934767343    -0.173148629289     2.439194216419

