# STO-3G

title

0 1
C     -0.860673106518     1.498434334866    -2.568904858723
C      0.415371080127     2.033131015493    -2.897519768978
C      0.616954012686     3.420090809659    -2.967090611600
C     -0.455759675822     4.302039465437    -2.716324969970
C     -1.736301193408     3.792895210768    -2.422234269274
C     -1.940049752577     2.402279571069    -2.365331982284
H     -1.016863240231     0.415282036953    -2.735137342027
H      1.231861019929     1.344514651456    -3.087178438461
H      1.598837697911     3.814351135580    -3.216745741634
H     -0.297557928863     5.377350901906    -2.764336562467
H     -2.568953485645     4.471180803602    -2.254162060948
H     -2.944301509028     2.028750463491    -2.197038454417
C     -2.184107382167    -1.285572911000    -0.165063623745
H     -2.152170852444    -1.483824071517     0.901524343878
H     -1.591313819190    -1.938218781947    -0.797487599300
C     -3.028549048209    -0.330243818686    -0.712810522936
H     -3.074549515976    -0.249096404493    -1.788564388320
C     -4.065049429132     0.403141586566     0.038172856571
O     -4.230295959988     0.190577781753     1.266804868423
O     -4.864379554264     1.327589047010    -0.656592328909
C     -5.851001936872     2.014090299736     0.127259100474
H     -6.418146824219     2.714980587323    -0.522393103522
H     -6.573255512578     1.293185590719     0.574172534334
H     -5.370479741363     2.604029212353     0.941059189361
Pd    -0.836706813112     0.540682271729    -0.320331180661
C      0.032280745407     1.260178837723     2.308026852895
O     -0.872946664448     0.449689553829     1.685990121930
O      0.035196078567     1.439830836529     3.535967812872
C      1.057527214503     1.932712030340     1.335224054602
H      2.032010316980     1.931627319719     1.841145003267
C      0.678169257175     3.360551273426     1.013223718494
H      1.443099783586     3.805109477331     0.343743833659
H     -0.299359998978     3.380342786056     0.488004703498
H      0.611974811499     3.960576640760     1.944766239233
N      1.027293246649     1.179562854796     0.081421197466
C      1.992160697595     0.513750294081    -0.541000241406
O      1.775341973346    -0.310184334080    -1.498213453307
C      3.397518146314     0.775005587121    -0.164287644250
H      3.582383770456     1.859226936064    -0.251357619952
H      3.555992551676     0.413337798818     0.864976560250
H      4.061656412092     0.223527849598    -0.855385315773
N     -1.144736970371    -1.509320740699    -3.469311495873
C     -2.034808239689    -1.740779193527    -4.483971923797
C     -2.280622956334    -3.032624770014    -4.909752548422
C     -1.626578954964    -4.097502479889    -4.327026687040
C     -0.726966421672    -3.837604869918    -3.326673860235
C     -0.501339973202    -2.498501596660    -2.937416173939
H     -2.559801524941    -0.908509008981    -4.938167842645
H     -2.989800049219    -3.204101667553    -5.702670949384
H     -1.816522215404    -5.115948521250    -4.655263103489
H     -0.175701195286    -4.614539261517    -2.835791994468
O      0.393339347557    -2.374358446236    -1.956639318522
H      0.839816522360    -1.464835812048    -1.788295907413

