# STO-3G

title

0 1
C      1.141138807704    -2.592950831751    -0.362776468748
C      0.894233612784    -3.954794297868    -0.038897272448
C      0.328404840466    -4.812739162566    -0.992278428256
C     -0.017765735501    -4.317302830602    -2.273241097888
C      0.219029242342    -2.970452042321    -2.603032312942
C      0.820240519206    -2.110505597630    -1.657180997040
H      1.739455573449    -2.002919472495     0.326416175507
H      1.155388028911    -4.313485363644     0.952530043064
H      0.157534441885    -5.858844846754    -0.751783375531
H     -0.459791556082    -4.983932514745    -3.009881386374
H     -0.044955728406    -2.592174192734    -3.587068017520
H      1.080794752026    -1.095548251909    -1.938903677977
C     -2.006156791147    -2.597474655768     0.361720895550
H     -1.621749513479    -3.079386287906    -0.527848848437
H     -1.871824248187    -3.131198474846     1.297857759157
C     -2.791849622206    -1.462797738796     0.300398536003
H     -3.272685683635    -1.082022819504     1.184892508300
C     -3.107439967808    -0.726796324321    -0.934254739556
O     -2.315788715454    -0.800113424700    -1.914172658053
O     -4.207541407001     0.146896325217    -0.944567351560
C     -4.336723359568     0.981284522444    -2.103476385531
H     -5.236097458327     1.624690886760    -1.993059173847
H     -3.449450749658     1.646052460227    -2.209344524772
H     -4.456727531614     0.366995518136    -3.024292243981
Pd    -0.499444795984    -0.857294549099     0.626519971094
C     -0.938660036277     2.015983176084     0.838040052163
O     -1.634628183571     0.867963406100     0.978781117317
O     -1.439405030868     3.142268770189     1.021033972306
C      0.550284937420     1.809765033299     0.414064314133
H      1.125272363375     2.636387069906     0.848964982003
C      0.702171767780     1.851041616356    -1.091081125933
H      1.756287898165     1.644668938909    -1.368480303063
H      0.047278441885     1.084396984964    -1.555292586976
H      0.413640038441     2.851952546384    -1.474936157018
N      0.981974296368     0.479353828808     0.872559891457
C      2.066142041535     0.149867526715     1.565439924143
O      2.320787192305    -1.032411202531     1.993795356578
C      3.085529014447     1.187030024061     1.838319430912
H      3.415446790987     1.616614491664     0.877574732679
H      2.638910107292     1.946891763460     2.500931577233
H      3.946783873321     0.718172615291     2.350063139004
N     -0.746102432868    -1.352330048338     3.109165150307
C     -1.883755037190    -0.887846683909     3.713063195175
C     -2.453263461366    -1.606591473174     4.748505136901
C     -1.871792781736    -2.776118115800     5.194194023380
C     -0.713558019079    -3.197704182166     4.592819049192
C     -0.165653938738    -2.421783132245     3.548882865094
H     -2.349090829880     0.026558115289     3.364794505956
H     -3.356479505712    -1.241962207280     5.209627007518
H     -2.314364545009    -3.342364414653     6.009317518725
H     -0.192411390912    -4.080989171509     4.902450207412
O      0.979634869525    -2.881282166273     3.046876514234
H      1.506554069333    -2.142918381762     2.543278603017

