# STO-3G

title

0 1
C     -1.154314992164    -1.468060283295     0.907872906537
C     -1.501969922966    -2.620675778282     0.174411347356
C     -2.183337026472    -3.683360459026     0.799960919893
C     -2.518744659614    -3.596029602790     2.165518718447
C     -2.182232333454    -2.439822494046     2.897616086340
C     -1.504852251688    -1.375326276697     2.270397251613
H     -0.618119165408    -0.657745556110     0.417714166796
H     -1.262955606147    -2.683343592917    -0.885976690329
H     -2.453235981546    -4.566837588589     0.225419651156
H     -3.042629489143    -4.416693580269     2.650844258502
H     -2.452814645297    -2.364681824950     3.948657570902
H     -1.275564434331    -0.467799054914     2.820503732407
C     -1.787864889385     2.459624225738    -1.768785340805
H     -2.314923571271     3.334292747280    -1.397330063655
H     -1.046444412264     2.622210088654    -2.544208271915
C     -2.163372748239     1.169002458592    -1.425411281406
H     -1.695811478085     0.336376777270    -1.932097719778
C     -3.316921070509     0.837817443614    -0.569794596282
O     -3.906116359354     1.751302948869     0.066498379750
O     -3.769905346940    -0.489465599549    -0.537634736623
C     -4.755139730465    -0.790099923981     0.459620309545
H     -5.005890801734    -1.871426510911     0.411314377365
H     -4.359726261364    -0.577923824238     1.479174662476
H     -5.685526736274    -0.202767559204     0.289774256269
Pd    -0.356795721769     1.914328614550    -0.084147251751
C      2.372020144475     2.481029707816    -0.831213763242
O      1.136488291163     2.257999416160    -1.401356624093
O      3.354191875772     2.796340712447    -1.509936478086
C      2.443104859716     2.296042600672     0.729072296789
H      2.910117809155     3.201046383790     1.144306618330
C      3.279385238116     1.085799452160     1.085529821663
H      3.350502509965     0.979049739115     2.186052919092
H      2.803589260478     0.174790296592     0.666988646811
H      4.301802838012     1.189364119341     0.665407665771
N      1.101275942195     2.082497312128     1.222072657228
C      0.386876197786     2.066441151693     2.321786441240
O     -0.892468623958     1.826220731674     2.161798462588
C      0.951862585326     2.292189406476     3.658963140242
H      0.787138750386     1.375002910449     4.249294110993
H      2.027045653733     2.516223232164     3.573555475375
H      0.414552577051     3.142734410947     4.113625778139
N      1.396055538087    -1.018503357447    -1.332134814354
C      1.730378485726    -2.267812148285    -0.880553856225
C      1.488312833291    -3.377900980115    -1.670753650572
C      0.908415559472    -3.238827910883    -2.914930429614
C      0.580656893500    -1.977496881902    -3.340065728266
C      0.866053654205    -0.880964006467    -2.498101977569
H      2.175166637588    -2.384501205499     0.100668045400
H      1.751028126155    -4.356122894793    -1.303375916553
H      0.714226287239    -4.106317729302    -3.539941084151
H      0.135824159125    -1.789755636495    -4.296650677357
O      0.517586502809     0.312066890305    -3.018744249534
H      0.860445270848     1.087673534829    -2.474659219027

