# STO-3G

title

0 1
C      1.778616348093    -0.907686742331    -0.496490709898
C      2.995264418683    -1.590937967209    -0.301662899431
C      3.739447999492    -2.041765657236    -1.409371729344
C      3.263632975862    -1.811936913827    -2.716134561988
C      2.046513313883    -1.129370286062    -2.911582686059
C      1.303093701521    -0.675041209251    -1.803680501973
H      1.214679417734    -0.572370942365     0.370780699963
H      3.359785843325    -1.766643117971     0.709189999312
H      4.679911499260    -2.566634085830    -1.255503120513
H      3.836520587961    -2.160250035734    -3.572805302899
H      1.678773321574    -0.949541301420    -3.919242269585
H      0.367475519189    -0.142959618374    -1.959438219654
C     -2.022429616407    -0.676533937304     1.798727980586
H     -2.939293559134    -0.207667109745     2.147914557617
H     -1.302330264097    -1.036273854187     2.532258883138
C     -1.801299371149    -0.964856136024     0.461122568714
H     -0.918703142621    -1.517126392679     0.177252448436
C     -2.753568600436    -0.681459937816    -0.628520007185
O     -3.856976799952    -0.130586950934    -0.366568821681
O     -2.437131052284    -1.112968085293    -1.927462563290
C     -3.287323986938    -0.614848376896    -2.969194004836
H     -2.935295585232    -1.002591814123    -3.948896072550
H     -4.339153190300    -0.947913128559    -2.818477155266
H     -3.250837121289     0.498802983947    -3.005051181743
Pd    -0.703378510089     1.036305537682     1.042609208358
C     -0.458445861567     2.802788690881    -1.197527335824
O     -1.085572970671     1.640232221119    -0.833556305125
O     -0.708130571799     3.371304895995    -2.269316188559
C      0.630881592072     3.349931330418    -0.192336460624
H      0.447949166771     4.423835757088    -0.052503557933
C      2.025447591126     3.139142215835    -0.745516945258
H      2.782864764855     3.552378933939    -0.050946008666
H      2.215181052039     2.053152647041    -0.878391724931
H      2.125377442056     3.646849690275    -1.727833151921
N      0.503043969131     2.595515091758     1.036911238398
C      0.922520121370     2.539479981889     2.269359428158
O      0.441040941043     1.534845865783     2.980813861276
C      1.851591969375     3.506223722904     2.865209398983
H      2.766345235760     2.959985815920     3.153605521840
H      2.080555959607     4.298150694811     2.134118099888
H      1.365764931903     3.938821513594     3.757409303612
N      0.785626935591    -2.007443880418     2.484484235618
C      0.730645585362    -3.288667687726     2.000342302076
C      1.709616952175    -4.203049100541     2.341753040534
C      2.745060701601    -3.840929622926     3.176107692061
C      2.777271686311    -2.554935775665     3.647665782579
C      1.754259309487    -1.659316530110     3.264662896771
H     -0.081259849152    -3.583455224980     1.346164436569
H      1.657046354166    -5.205656319177     1.950108423735
H      3.516148521177    -4.555783286731     3.450655040479
H      3.550742099452    -2.203270125683     4.300369503993
O      1.909146257829    -0.434424510820     3.776999324080
H      1.244592052471     0.268433563172     3.495289277878

