# STO-3G

title

0 1
C     -1.138118467108    -0.474559188948     4.118304256932
C     -2.360397780325    -0.645030527279     4.799814292777
C     -2.654034392419     0.137256537611     5.935127777691
C     -1.719997086086     1.088005722740     6.394201523712
C     -0.494039378155     1.253232667221     5.718200807287
C     -0.202649956621     0.473251706484     4.580899076225
H     -0.918034685242    -1.086125372577     3.249205964169
H     -3.077191277288    -1.382353370916     4.446518620407
H     -3.598186060053     0.006435844923     6.460216608810
H     -1.943399963251     1.691299752422     7.271893701491
H      0.230486957972     1.981849538526     6.076110543949
H      0.739751675259     0.592459648457     4.053013133994
C     -2.449093782433    -0.340902396287     0.618893172539
H     -3.042802486065    -0.481703232875    -0.282790703480
H     -2.139745680360    -1.240858893687     1.152438216995
C     -2.255894819425     0.916917505700     1.177872450779
H     -1.740708360803     0.994296235336     2.124111397090
C     -2.859246381912     2.164895630333     0.676532081270
O     -3.513107101573     2.154022345415    -0.399376536038
O     -2.579921862595     3.365631848392     1.349604757612
C     -3.163755573506     4.549925777086     0.788555705103
H     -2.878948465784     5.428785217503     1.406349726541
H     -2.795607693565     4.720068225628    -0.248852251909
H     -4.275064425189     4.477114812627     0.779134922041
Pd    -0.437511039810     0.371624719899    -0.182369402984
C      2.104011939664     0.076268765909     1.141042501286
O      0.747918230638    -0.034452372124     1.406112146339
O      2.940117995600    -0.004116231305     2.047428240545
C      2.498371680906     0.259355951663    -0.376050160603
H      3.042978649445    -0.651855264229    -0.667781406275
C      3.392558214740     1.464548404359    -0.572527831092
H      3.718833729057     1.527570399132    -1.629142391925
H      2.834999059448     2.387017349913    -0.308385433698
H      4.292248280717     1.382891518811     0.073132502677
N      1.282351227974     0.453514696378    -1.134477773998
C      0.814059669638     0.421605662784    -2.363310666826
O     -0.486636260764     0.518329311426    -2.479630127535
C      1.681639562314     0.271733937146    -3.538826987628
H      2.344226373843     1.150570109126    -3.590043824583
H      2.259611887616    -0.659417966796    -3.419458041351
H      1.044443087969     0.219966753602    -4.440488075761
N     -1.540525634384    -3.132145360453     1.933865838827
C     -2.500248537240    -4.045186044891     2.279960042288
C     -2.358048014153    -5.371274630334     1.912023524604
C     -1.248410421806    -5.785798132762     1.203654089919
C     -0.299084105118    -4.851172669756     0.878932501182
C     -0.496095073922    -3.514874409846     1.285484758509
H     -3.374517265958    -3.723260651977     2.833570922138
H     -3.119863761458    -6.082333183994     2.186048813409
H     -1.128430756620    -6.826405427583     0.914320343640
H      0.593331083247    -5.100396353828     0.341525363880
O      0.498473549281    -2.684002422794     0.930689512383
H      0.420072364606    -1.757473997103     1.288384419835

