# STO-3G

title

0 1
C     -1.279774007603     2.628096371308     1.348762147835
C     -2.492850664930     1.945781043437     1.063734242458
C     -2.910253305304     0.885463365543     1.870327524801
C     -2.136663900787     0.494442657614     2.992959585866
C     -0.968709762480     1.188932230428     3.319013661401
C     -0.532522177104     2.264344414013     2.503265036325
H     -1.016464007550     3.506061993472     0.767499284431
H     -3.098975581108     2.273514161523     0.223238644999
H     -3.832743539785     0.358035862117     1.643124042052
H     -2.463515410286    -0.339303730746     3.608441988862
H     -0.391246204751     0.919256426659     4.199216021784
H      0.288351393389     2.885026907826     2.847240982884
C      1.554028316042     3.610732413267     0.348649057151
H      1.046823922334     4.135895489200     1.152150923006
H      1.264380907155     3.876653800887    -0.664136895480
C      2.690936608503     2.847604315444     0.576660087199
H      3.234595606719     2.498733724518    -0.283937267300
C      3.335451910371     2.617595804524     1.879117432645
O      2.754028274527     2.980874216566     2.935378576308
O      4.516595928853     1.857494889639     1.922333281837
C      5.057950800508     1.610855721946     3.227877830407
H      5.988981588942     1.011237192360     3.133386723781
H      5.312007278280     2.567517842818     3.738678740702
H      4.337696596324     1.036921992871     3.854132174552
Pd     0.750051212484     1.439175926041     0.441043146244
C      0.508372987365    -1.427062387696     0.372724803811
O     -0.224942686949    -0.319210492742     0.615740277903
O      0.043500888466    -2.581063144019     0.437402333061
C      1.992508306942    -1.120281570834     0.008127113910
H      2.329229488055    -1.914003680034    -0.670644194467
C      2.879327166725    -1.124307331909     1.234545135051
H      3.921007249927    -0.876100678119     0.943559319580
H      2.520719475519    -0.364798756930     1.958575841687
H      2.861948284161    -2.124844347900     1.714959039389
N      2.045460662233     0.233203892166    -0.572484084133
C      2.592505174733     0.618486579409    -1.720227390219
O      2.548930334720     1.815622783336    -2.177333531644
C      3.355850728599    -0.369214780516    -2.516300018865
H      4.160293713434    -0.782505294887    -1.884944606547
H      2.656485005416    -1.148367122733    -2.862818152678
H      3.797257040878     0.140367380756    -3.392966989259
N     -0.648541347935     1.514910807677    -1.921872807198
C     -1.833324852791     0.828976325976    -1.899442013113
C     -2.946650725965     1.360410249885    -2.528583292336
C     -2.871321102606     2.573559846424    -3.182550648470
C     -1.666409018816     3.228579632512    -3.203212497718
C     -0.558581653551     2.631899885936    -2.563472615548
H     -1.902661763502    -0.118609507090    -1.378569698484
H     -3.876334139473     0.816596777911    -2.500403395112
H     -3.742840634436     2.994575878746    -3.676447381451
H     -1.525787920267     4.161726453622    -3.709940473559
O      0.588006973644     3.316641445651    -2.668121251989
H      1.404448029502     2.726513490389    -2.433982206026

