# STO-3G

title

0 1
C      0.843020123920    -0.781748498020    -1.205066533264
C      1.004732550894    -2.179263852340    -1.301577425058
C      1.107367557520    -2.797643411631    -2.562459744049
C      1.045265445363    -2.017299570315    -3.734872483943
C      0.878707053646    -0.621714069679    -3.641500349572
C      0.780503609873    -0.001757695089    -2.379245889758
H      0.784153068139    -0.324012990675    -0.219486116027
H      1.032392659930    -2.782874486603    -0.395865672828
H      1.232178414645    -3.876077771625    -2.629407741329
H      1.125979043246    -2.492002966625    -4.710228886699
H      0.829418766274    -0.017260100689    -4.544382135389
H      0.662622800656     1.078169607425    -2.318582244840
C     -2.358178608316     1.103652025194     1.641120719726
H     -3.218666099163     1.615117354006     1.210581510633
H     -2.007010387256     1.418578257402     2.616444522148
C     -1.843119994630    -0.068943313313     1.090984604119
H     -1.123436763761    -0.650847624619     1.645573391903
C     -2.384963284703    -0.710068509422    -0.118991563344
O     -2.990059551744     0.003977722545    -0.962083515925
O     -2.049781833185    -2.045331474595    -0.391174690107
C     -2.419450775668    -2.531009548931    -1.689455968576
H     -2.093408835962    -3.588001484790    -1.792575350234
H     -3.522774928872    -2.487546382509    -1.831774557377
H     -1.916524543177    -1.939514443982    -2.489129642169
Pd    -0.741865553690     1.830652585292     0.247222942095
C      1.228227662690     3.780394131514    -0.535390885665
O      0.137002980800     3.101150522542    -0.981632935149
O      1.726369266849     4.736808896629    -1.145379031077
C      1.814125350752     3.174879333602     0.761724954427
H      2.217574063250     4.002534680681     1.359316388067
C      2.935201374693     2.208797248218     0.430173830724
H      3.360731260601     1.769478851976     1.352729891152
H      2.542715128711     1.384316009521    -0.197607663312
H      3.741932079817     2.733972876340    -0.122996764542
N      0.753081699901     2.423458324489     1.479729642060
C      0.733457810129     2.108152395516     2.779014611108
O     -0.064912033805     1.278206462989     3.320476816622
C      1.668764829380     2.815033246654     3.688068638354
H      2.704326538321     2.566550687784     3.410226072724
H      1.470743159214     3.897508911401     3.618137923330
H      1.484503582761     2.477499560237     4.725123160283
N      2.128697298183    -0.894574081464     1.909686599176
C      3.235062456210    -1.409709685505     1.287430228690
C      3.502295047727    -2.765297945028     1.356558620722
C      2.660349767844    -3.610268094551     2.048979711320
C      1.560573781550    -3.069517141904     2.661964044518
C      1.342718203546    -1.677363258429     2.567796038120
H      3.895981025652    -0.754186350236     0.733169752321
H      4.372029914092    -3.159528541343     0.857388536214
H      2.861814651317    -4.676675987672     2.104040998228
H      0.861213109836    -3.661984891386     3.217079021080
O      0.236820618665    -1.260428417818     3.208771690653
H      0.149504513691    -0.251886028224     3.280802963044

