# STO-3G

title

0 1
C     -2.355653697553    -0.255914232177     2.751658728622
C     -1.987141810868    -1.376822136771     3.523485776993
C     -2.447625325680    -1.496472214919     4.849934536201
C     -3.275083626733    -0.498686587865     5.404254368108
C     -3.639515441548     0.622973618908     4.632331929902
C     -3.176596027771     0.746585654619     3.306770752240
H     -1.990415030593    -0.181363526547     1.732372610796
H     -1.347220857023    -2.138323159446     3.086019468199
H     -2.163173854376    -2.360757464576     5.446672819356
H     -3.632445505289    -0.593850094264     6.427924895336
H     -4.277515901863     1.393691607549     5.060855755832
H     -3.441264760636     1.616841643883     2.711188451717
C     -2.480749776296     0.033610902850    -2.290121329714
H     -2.473920616348    -0.641853170291    -3.141530354240
H     -2.306954051607     1.087859866966    -2.480155574354
C     -2.846639734616    -0.383308511319    -1.022327174683
H     -2.940714656815     0.339144145554    -0.225457273260
C     -3.233547728301    -1.761077192499    -0.673518113709
O     -2.989544703346    -2.698279654138    -1.481444508829
O     -3.869572404338    -1.994707534599     0.554428882696
C     -3.923340658419    -3.361828756510     0.980588835494
H     -4.420387990621    -3.414237138517     1.973274009321
H     -4.504643721376    -3.981416019158     0.261299835224
H     -2.895347686940    -3.777513648278     1.090875750346
Pd    -0.467739715356    -0.536950566832    -1.340519046397
C      0.581210603818    -2.209671539623     0.740067744857
O     -0.555082302686    -1.523634245097     0.421158628321
O      0.631463342136    -2.955495397724     1.731631868246
C      1.817705111851    -2.010636284670    -0.221429832683
H      2.058561083078    -3.000594157240    -0.638035677476
C      3.020518188703    -1.478468086765     0.525674130498
H      3.883639403642    -1.380435670275    -0.161532370223
H      2.779250110527    -0.485470102696     0.953243652339
H      3.294066272508    -2.171516631229     1.348840974464
N      1.438357287065    -1.056312931309    -1.244384347934
C      1.763317579301    -0.723698010083    -2.476304432802
O      0.874916942991    -0.026935512627    -3.139465842980
C      3.045250155035    -1.105373372835    -3.083152137331
H      3.853489982229    -0.638223173117    -2.497419697974
H      3.120738802545    -2.204981193047    -3.061199812614
H      3.064684202558    -0.737439013809    -4.125267061744
N     -1.283163361025     2.458554215540     0.981470448396
C     -0.266602564934     2.138325990568     1.842085269398
C      1.000294237383     1.885206602805     1.343478841501
C      1.243671706733     1.944177525740    -0.015062100221
C      0.201442580109     2.264989196620    -0.848336479504
C     -1.055720535604     2.530281965785    -0.273649491883
H     -0.456231806868     2.083352901157     2.907943473667
H      1.793167818282     1.635600090199     2.028332527515
H      2.233002623858     1.738932049541    -0.414562017805
H      0.319396717823     2.337433103801    -1.913186622864
O     -2.032049712730     2.838289624630    -1.172224171039
H     -2.862977877613     3.031573251790    -0.690140931639

