# STO-3G

title

0 1
C     -3.507036957230    -2.043616846650    -0.593426162007
C     -4.868389292568    -2.165361342335    -0.196146149727
C     -5.870242772940    -1.529749382158    -0.937906255541
C     -5.531023246700    -0.735796206781    -2.069137608136
C     -4.194546066778    -0.584130494515    -2.452632305089
C     -3.172384169832    -1.261066789310    -1.732849998727
H     -2.740683968487    -2.642804065729    -0.115520664948
H     -5.121084108289    -2.768064460055     0.672872583228
H     -6.912864532858    -1.643758340446    -0.650647004816
H     -6.319227431724    -0.244588071373    -2.634525213372
H     -3.890449127644     0.037346898668    -3.288318522904
H     -2.161017917911    -1.243609344969    -2.126301076746
C     -3.916690463620     1.169986948563     0.365336220097
H     -4.710191601011     0.443181284287     0.241153807447
H     -3.709426395164     1.826795149694    -0.472129157119
C     -3.286774417057     1.364359462529     1.585538104617
H     -2.601869644094     2.189952879410     1.686003090114
C     -3.574248355696     0.609542594642     2.813881426808
O     -4.106882142533    -0.528995057502     2.724198068942
O     -3.020472218640     1.057956661331     4.025426558173
C     -3.301563881242     0.252715623079     5.179241616892
H     -2.826878158669     0.711662420307     6.073243436635
H     -4.398615802854     0.192063698700     5.361765208820
H     -2.890263889308    -0.774908321682     5.057289062182
Pd    -2.062714744321    -0.188337696753     0.262106039515
C      0.390178194956    -1.616466023095     0.690913374939
O     -0.658764728679    -1.576016787624    -0.165891750615
O      1.303784214892    -2.456585072344     0.621201737131
C      0.331156732087    -0.512626404110     1.795466063985
H      1.367626384057    -0.241641636562     2.031503139407
C     -0.330600908137    -1.021931159709     3.056434949775
H     -0.385766692534    -0.204632090730     3.805032504128
H     -1.358584113265    -1.371082384362     2.828830022051
H      0.253849845008    -1.865471684085     3.479942317474
N     -0.483902329465     0.605089808801     1.283926379220
C     -0.125956527787     1.878421622662     1.139616216787
O     -0.814989841543     2.757181586439     0.503822298171
C      1.107858542491     2.355678242583     1.802970689179
H      1.043929565899     2.108270518332     2.876720062149
H      1.975865865989     1.877952549791     1.319173510681
H      1.180336962273     3.452709892890     1.682056035753
N     -1.447946924169     0.831114685869    -3.543343825593
C     -0.594730576373     0.470790665352    -4.550517722198
C      0.676041786561     1.014002660751    -4.611676324609
C      1.093008310307     1.925098489277    -3.665830333275
C      0.219384203274     2.275066859082    -2.668357190263
C     -1.072636343770     1.681848890386    -2.655122260019
H     -0.916895401612    -0.246741039227    -5.296006493951
H      1.339390409997     0.717877481781    -5.407193699749
H      2.087543966510     2.360272690124    -3.714521878017
H      0.480726563005     3.000841231550    -1.926116567983
O     -1.908082573375     2.058790673342    -1.663144935105
H     -1.474353431780     2.427907168551    -0.807995361515

