# STO-3G

title

0 1
C     -3.075287461992    -2.138092561401    -0.492408797113
C     -4.480882341612    -1.924586689368    -0.492972339159
C     -5.098563201230    -1.315997732699    -1.591991509338
C     -4.319694403290    -0.903834525321    -2.704203096279
C     -2.932731543370    -1.100430032516    -2.710165133914
C     -2.297760190080    -1.731788260223    -1.610714262769
H     -2.613564862293    -2.733896615852     0.286631445231
H     -5.069733338445    -2.248489000153     0.361801294872
H     -6.175243099598    -1.168300455384    -1.598664251695
H     -4.804346026038    -0.440205608697    -3.559456964717
H     -2.338596350324    -0.793719938863    -3.565627009953
H     -1.240977663510    -1.979493159719    -1.653442588541
C     -2.998383822438     1.248766151243    -0.063312553660
H     -3.839446366423     0.667918381644    -0.427889147822
H     -2.431492690483     1.815596073362    -0.803155088657
C     -2.791618088230     1.449253193339     1.294866412675
H     -2.025132485186     2.145262781114     1.590954299530
C     -3.622713059626     0.905849421208     2.379442765743
O     -4.336303609403    -0.108001009812     2.156429344980
O     -3.393467638975     1.356131889017     3.690895338653
C     -4.181910073905     0.734104153408     4.715617481817
H     -3.923192624092     1.179476392393     5.700533114916
H     -5.268318319017     0.899599075589     4.534627202448
H     -3.977870756463    -0.359493905351     4.765828245965
Pd    -1.583856841030    -0.451110832430     0.555285403621
C      0.332831427764    -2.141532818845     1.874794855824
O     -0.454946064748    -2.113806172023     0.771463632180
O      1.027643894754    -3.118984221835     2.199233932166
C      0.260014010344    -0.828109667275     2.718896028596
H      1.255342594867    -0.666650881360     3.151041406678
C     -0.743483506105    -0.946911970100     3.844662354439
H     -0.797714787224     0.012159466730     4.400368479196
H     -1.746199505418    -1.177533555980     3.431212662603
H     -0.441060813767    -1.756453382015     4.541522140216
N     -0.186724316499     0.261543485239     1.835357353872
C      0.406666521179     1.426479122502     1.578966365287
O      0.047243122447     2.211745781412     0.633926028506
C      1.498218476348     1.881392329390     2.467739521446
H      1.129148606707     1.871682288903     3.507403746216
H      2.363809590674     1.212822230111     2.329206382954
H      1.783664549081     2.911301873568     2.183008807555
N     -1.562276324948     2.423470032222    -2.625226993138
C     -2.210463359591     2.848575160454    -3.753100746930
C     -1.836951744678     2.359537186658    -4.992701403791
C     -0.801979837445     1.453964147955    -5.105275646681
C     -0.164525733709     1.050887640116    -3.960757116733
C     -0.587011250528     1.582977246532    -2.721964133293
H     -3.024626339233     3.558916535739    -3.669927425274
H     -2.356396007769     2.697552783949    -5.873962166476
H     -0.500387825385     1.069718022028    -6.076003759813
H      0.649266699103     0.353861743225    -3.969197829164
O      0.100106114401     1.121572522781    -1.670934729825
H     -0.036191486094     1.621804522107    -0.788255291154

