# STO-3G

title

0 1
C     -2.755584562462    -2.242187996457    -1.823961697709
C     -2.617357277394    -3.067844447972    -2.960415652963
C     -3.460906287890    -4.187040238800    -3.124119750822
C     -4.443338469080    -4.475069359970    -2.157065395910
C     -4.591068590432    -3.640118983711    -1.029339486274
C     -3.750263028527    -2.523451664252    -0.862806374543
H     -2.124750502809    -1.367740683386    -1.697239797559
H     -1.874184092355    -2.817864573198    -3.714019157899
H     -3.355693322914    -4.823004715854    -4.000300867247
H     -5.094862435612    -5.337003504734    -2.283905738103
H     -5.361468731107    -3.854857255844    -0.292039801116
H     -3.867358709199    -1.853329783041    -0.015387483340
C     -0.817279602315    -2.071697023878     1.542608470194
H     -1.314348872230    -1.635089290965     2.403410288274
H     -1.461200650179    -2.516656884665     0.791074365745
C      0.557865023481    -2.183813292633     1.434153780356
H      0.963699474709    -2.711229513212     0.584159639845
C      1.527238726135    -1.732700182348     2.446410430359
O      1.141254042143    -0.989932721005     3.388210214712
O      2.882812161429    -2.060856802090     2.276475804210
C      3.790856910980    -1.474366445991     3.219036752964
H      4.826338133988    -1.803363083656     2.986342748828
H      3.758131441156    -0.362520305171     3.156856423277
H      3.547644985556    -1.795648869410     4.257268280317
Pd    -0.145305679820    -0.181280536933     0.414521636893
C     -2.513018126933     1.328042704233    -0.209002179838
O     -2.151765112070     0.102869069105     0.276229089588
O     -3.684271399136     1.733438232835    -0.178041421698
C     -1.353862775557     2.184462182116    -0.855781242419
H     -1.424865461077     3.201987379278    -0.446736016508
C     -1.500307493147     2.232826590957    -2.361003945715
H     -0.681991567857     2.833703390904    -2.804251124922
H     -1.458054963334     1.200486305628    -2.766645510781
H     -2.474355402391     2.690592984574    -2.633558959188
N     -0.100880068408     1.540697714247    -0.534486193755
C      1.185214554185     1.772306592570    -0.432485976674
O      1.899220123069     0.820207034849     0.123534012174
C      1.801359298437     3.019894547904    -0.901534195673
H      1.639553102622     3.089432217154    -1.989222039175
H      1.319865177492     3.857585561042    -0.370804730537
H      2.881958343830     2.984314977618    -0.673892848748
N      0.308384372250    -1.172472773315    -3.092322638994
C      0.951960593199    -0.161357813074    -3.754405253965
C      2.282870305081     0.106018692012    -3.485595717651
C      2.974223607352    -0.652724077410    -2.561327873026
C      2.309967071968    -1.675341223055    -1.934458813683
C      0.950975057031    -1.885147477680    -2.241709517264
H      0.412377709394     0.436305075525    -4.479582609219
H      2.780650599480     0.907534442080    -4.004864977475
H      4.017104131983    -0.446087983450    -2.336567849528
H      2.785276123679    -2.296786843509    -1.202200424456
O      0.378501298839    -2.895208286887    -1.539021452935
H     -0.578418659747    -2.988819046913    -1.755020314213

