# STO-3G

title

0 1
C     -0.124063246712    -2.807519731570    -1.127141557929
C     -0.926544012017    -2.493869401546    -2.249071827775
C     -0.325536833877    -2.030147522359    -3.428874283225
C      1.079926667245    -1.870605508613    -3.506363108771
C      1.885737071613    -2.184768134729    -2.406547816503
C      1.292052332059    -2.652994660652    -1.201730969743
H     -0.584201579038    -3.233516819348    -0.242562592365
H     -2.003497414621    -2.625068858712    -2.192345143695
H     -0.941821155434    -1.796742750317    -4.294022496926
H      1.534347300631    -1.510958781631    -4.425577889586
H      2.962404018694    -2.066502215410    -2.452239392419
H      1.941868410146    -3.050801654099    -0.425524586075
C      0.449404067964    -2.538934208897     1.976531448743
H      0.824647957520    -3.455443875401     1.529176386473
H     -0.608794769651    -2.477472808746     2.210376244700
C      1.311087215202    -1.555400216332     2.431362580617
H      0.911148586347    -0.716952393651     2.984593228347
C      2.781133765651    -1.613420422185     2.346208266282
O      3.329820023219    -2.570633184125     1.738170817911
O      3.526170334012    -0.525113929134     2.827499277897
C      4.919345684637    -0.524377624177     2.485706352024
H      5.403000076826     0.380642317394     2.911677756733
H      5.431460549776    -1.422093335331     2.900512089914
H      5.051954365498    -0.499136204882     1.378897985630
Pd     0.633307053066    -0.813191072498     0.316430703411
C     -0.725861195447     1.767766960708     0.567212736307
O     -0.294247862673     0.711454583633     1.332943233858
O     -1.329796283647     2.732037443669     1.056685636067
C     -0.403866405304     1.588629222440    -0.946359288904
H     -0.183029623898     2.584076220930    -1.353434645150
C     -1.584914338754     1.020371812099    -1.698237326285
H     -1.315441129863     0.893596498770    -2.767344721988
H     -1.851863222453     0.028353630821    -1.281735576678
H     -2.457489671542     1.701945440563    -1.618725441876
N      0.703427701057     0.637754408704    -1.073052013008
C      1.998019869795     0.912666481275    -1.354488077194
O      2.952743800567     0.161648374640    -0.989716700115
C      2.300322915744     2.094339123430    -2.194365801174
H      1.681507187088     2.033378991586    -3.105880404518
H      2.092009848608     3.005293850565    -1.611174652693
H      3.371855245607     2.067165918460    -2.465367441777
N     -1.980462400833    -2.036592774148     4.501575480999
C     -2.025969772988    -2.075693975378     5.868951077897
C     -2.002972388520    -0.898567283605     6.597279159925
C     -1.944901502060     0.320964541818     5.954953090917
C     -1.912844215345     0.333479645606     4.583866339309
C     -1.942320906754    -0.907455453670     3.895122179671
H     -2.066827027743    -3.031241585935     6.378506511778
H     -2.033212157558    -0.941367275998     7.673319956778
H     -1.931497994278     1.248402881180     6.521354622934
H     -1.890002946513     1.252412375017     4.030373990759
O     -1.927445370548    -0.856863616677     2.539416916020
H     -1.415838557629    -0.087348974779     2.142783110277

