# STO-3G

title

0 1
C      3.588894015750     1.656937507074     0.665176033764
C      4.812714407273     1.881383705185     0.003210813069
C      5.540866397457     3.063635194837     0.243214386439
C      5.045308703197     4.025808121443     1.146214564505
C      3.820469386979     3.805078938458     1.807231345113
C      3.093243185276     2.623128944739     1.565014455303
H      3.026400135506     0.750244668286     0.463610925406
H      5.191808674447     1.138126074972    -0.694432690457
H      6.485999497958     3.233421928533    -0.267739840973
H      5.608034072974     4.937576334697     1.333924088644
H      3.435351276192     4.544907077590     2.505607013095
H      2.143116910191     2.460910430035     2.073877272473
C      1.812282628178    -0.884318555317     2.397007131268
H      2.493098513978    -0.064563190740     2.602660910704
H      2.220400058809    -1.728674279761     1.849789701178
C      0.537694251427    -0.952362801060     2.936647290480
H     -0.045245517332    -1.849927554469     2.802957846056
C     -0.052723674620     0.071931247483     3.816358656287
O      0.552381351437     1.164106984288     3.990492729120
O     -1.303630710745    -0.179439052196     4.404068963016
C     -1.898411896629     0.926149834299     5.097365133569
H     -2.881542173913     0.615627231216     5.511324640751
H     -1.253306948433     1.259192854579     5.941842490819
H     -2.068886100012     1.779300839616     4.400843005451
Pd     0.382237184238     0.047920195818     0.831349338927
C      1.407886604771    -0.186199212419    -1.892210921133
O      1.652484142859    -0.686374199905    -0.637961719042
O      1.950215943079    -0.640818337721    -2.907912147692
C      0.391160479899     1.012682754374    -1.953153630405
H     -0.294926661396     0.804319820322    -2.786052286874
C      1.107658917719     2.323527314734    -2.206690410353
H      0.373705508472     3.147580266267    -2.306102927477
H      1.785113160505     2.551124630331    -1.357634445369
H      1.703696055716     2.258741361635    -3.141103647578
N     -0.290523441533     1.096924639949    -0.680734874088
C     -1.293715069867     1.686555108962    -0.079782058070
O     -1.435915934973     1.401467953021     1.195381719877
C     -2.239270747283     2.578064175184    -0.765413560123
H     -2.167160510479     3.570124338408    -0.288593627859
H     -1.983023448223     2.635744599587    -1.835278599850
H     -3.252464140852     2.160486746207    -0.633974057473
N     -0.934051303219    -2.229580970785     0.360140206946
C     -2.255199774036    -2.410281738060     0.668655471134
C     -2.738905291468    -3.683555340640     0.907409325323
C     -1.901231042767    -4.777556131749     0.828389540967
C     -0.584476973093    -4.566674770077     0.509239044267
C     -0.143326224193    -3.247963032013     0.268998429138
H     -2.913913809427    -1.552274414446     0.739137541358
H     -3.778514307756    -3.816955327423     1.157283461779
H     -2.275650469739    -5.780635400101     1.014495262786
H      0.122719202117    -5.367442044162     0.425551188467
O      1.159662332035    -3.150786748227    -0.023566916338
H      1.449533777068    -2.226989202355    -0.332443898128

