# STO-3G

title

0 1
C     -2.779561076026    -3.246246221113    -1.066616714890
C     -2.634478895195    -4.596769059254    -0.691621335431
C     -3.766617906397    -5.351502733134    -0.323358713514
C     -5.043568356521    -4.755297882334    -0.336108181465
C     -5.187874309301    -3.406242693032    -0.719340278820
C     -4.056546930498    -2.649969337564    -1.085205073920
H     -1.920282222835    -2.653533357642    -1.361350264194
H     -1.650041981180    -5.061165168411    -0.690881406565
H     -3.655536717480    -6.394311636279    -0.033667492390
H     -5.918237036387    -5.337955493464    -0.054509988345
H     -6.174428089656    -2.948299947208    -0.737239934631
H     -4.155052158711    -1.611439691625    -1.390032521123
C     -0.825135613406    -1.616228993954     1.352913986616
H     -0.686475426662    -1.273013693556     2.374619116043
H     -1.842829721445    -1.778251898521     1.012715906897
C      0.242656652997    -2.047385896432     0.568443904975
H      0.044643614832    -2.517452393153    -0.384190559633
C      1.641473769656    -2.137057351900     1.019700067818
O      1.973341231907    -1.655464407775     2.134824889951
O      2.580253868457    -2.763368499147     0.182642151077
C      3.937439960029    -2.756178723783     0.645513313952
H      4.582201180604    -3.267635059723    -0.101057845917
H      4.307844429763    -1.713087831684     0.766661095187
H      4.028118894850    -3.296806484219     1.614924154662
Pd    -0.273963547691     0.168934581457     0.104983491044
C     -2.361019234272     0.957558382760    -1.763913944830
O     -1.760575299772    -0.190897029025    -1.304075104534
O     -3.446052836083     0.947586905884    -2.360738201148
C     -1.543929464389     2.279167082908    -1.515392247239
H     -2.264052515931     3.066180957296    -1.250933283574
C     -0.793553331029     2.687228420431    -2.766558817576
H     -0.291195300257     3.661472948558    -2.607076713327
H     -0.023618546755     1.922480759916    -3.002237353852
H     -1.495061902140     2.781092343998    -3.622021449076
N     -0.581225282378     2.025986638011    -0.463278319253
C      0.136871628173     2.689088514327     0.417405849273
O      0.836386694000     1.980673969118     1.255397886649
C      0.157069768389     4.159608622952     0.453556572879
H      0.566620649885     4.520931820461    -0.503184071842
H     -0.876204972976     4.511652129679     0.606010065312
H      0.802061529874     4.480288271616     1.291839764071
N      1.558727211562    -0.162864911138    -1.525523335118
C      2.834482233371     0.283182612208    -1.311857723790
C      3.849330289619    -0.103906958956    -2.167633671409
C      3.583806870931    -0.937984949309    -3.235220155521
C      2.292504361907    -1.358068590879    -3.429018603041
C      1.294230226913    -0.930767183364    -2.529417937342
H      3.045377441185     0.930158432332    -0.467971151980
H      4.852753409901     0.246264464748    -1.991822032602
H      4.377490390001    -1.250539086012    -3.908367866092
H      2.012960971513    -2.003895336612    -4.237003065695
O      0.068703535478    -1.391414937633    -2.806792635026
H     -0.679895967941    -0.977854058142    -2.270664606806

