# STO-3G

title

0 1
C     -2.055848053849    -1.294769152099    -1.088324884453
C     -3.116840660990    -2.045188648502    -0.537201705930
C     -3.992838576577    -2.747465497707    -1.387369322443
C     -3.806194935122    -2.706609911828    -2.784449161282
C     -2.744718972503    -1.960550578776    -3.333988432164
C     -1.869371485437    -1.252750006128    -2.486361878536
H     -1.356303881113    -0.773299742385    -0.438558613866
H     -3.240459319147    -2.078125447267     0.541793127299
H     -4.814021509814    -3.322395316304    -0.965503678680
H     -4.484497435814    -3.249422774732    -3.439177991036
H     -2.603810175774    -1.925986390181    -4.411852885093
H     -1.051535274620    -0.666489464041    -2.897194022368
C     -1.503158549522     1.949550121095     1.846712295826
H     -1.619425526541     2.391206785433     0.863044574148
H     -2.354477986345     1.379933243282     2.212300480844
C     -0.427109173928     2.235843153406     2.676317435206
H     -0.422451536351     1.875905595550     3.695358927799
C      0.661053274669     3.172176197537     2.336375371571
O      0.565491989852     3.895516074535     1.309407940931
O      1.692279744040     3.363634637773     3.270974991272
C      2.793742249215     4.163030801395     2.818370544110
H      3.557086823343     4.228678332197     3.622832552539
H      3.271622154539     3.700715218184     1.923539384939
H      2.459605410298     5.195532430626     2.568412728168
Pd    -0.053307357187     0.199819929936     1.640900824936
C      2.619619033306    -0.262971669811     0.711123500566
O      1.801450921029     0.766069853588     1.085921363482
O      3.802380444131    -0.067283749875     0.389278532123
C      1.962027095506    -1.697122406002     0.655927579150
H      2.619748046505    -2.390479668812     1.198815357186
C      1.808433978486    -2.160491859895    -0.777255292322
H      1.374201501092    -3.179289315185    -0.804311333874
H      1.133063209664    -1.466067270237    -1.320809376596
H      2.797428889345    -2.177384634876    -1.281124368060
N      0.646948266412    -1.588819580534     1.242665929744
C     -0.335506537726    -2.305307269046     1.732979393746
O     -1.367529441729    -1.628579313983     2.183221680362
C     -0.300721291055    -3.772017237919     1.772981618875
H     -0.259950111656    -4.139668807115     0.734345184298
H      0.593974938289    -4.077319030899     2.340053307024
H     -1.219478285510    -4.132889481001     2.269561392607
N      0.069120573384     1.463604574067    -1.506162533067
C      1.343699360685     1.919352446876    -1.724424700390
C      1.559077125222     3.249070994125    -2.039970848502
C      0.501318319110     4.132876925997    -2.103453092900
C     -0.763458513180     3.648726813576    -1.887311682854
C     -0.916030330127     2.283505556706    -1.574858218543
H      2.179692247732     1.232948256699    -1.673072556766
H      2.565668659441     3.597772532170    -2.196947690035
H      0.666466914403     5.184367039106    -2.320674960849
H     -1.629581297368     4.277372643110    -1.908141207790
O     -2.202424097409     1.917828949011    -1.338838832776
H     -2.283040004336     0.946487758283    -1.206637225931

