# STO-3G

title

0 1
C     -2.800063974645     0.552781549698     2.335986860259
C     -2.879333111341     0.160842137767     3.686576228590
C     -4.060834231991     0.383899262435     4.420584719767
C     -5.166195463513     1.002007459374     3.802543992348
C     -5.085172825101     1.399498001415     2.452967843335
C     -3.903606282844     1.176903722633     1.717706485668
H     -1.882152759468     0.376276313524     1.777921852506
H     -2.021910318343    -0.307229612556     4.163661462915
H     -4.117331456618     0.080837278674     5.463695727853
H     -6.079166066918     1.175604511868     4.367923739346
H     -5.935550555460     1.882008631774     1.976133116601
H     -3.834777175917     1.491005104985     0.679228475592
C     -2.606451062146    -1.594167922661    -0.497426233357
H     -3.457129300147    -1.176475574584    -1.032218292290
H     -2.667048117597    -1.643131607175     0.584757789885
C     -1.532494513906    -2.197944308834    -1.132217237727
H     -0.784172964064    -2.664534948699    -0.508530802933
C     -1.392403866965    -2.366934982927    -2.587911763514
O     -2.116031920613    -1.683999512491    -3.360419440507
O     -0.346543686676    -3.164386601586    -3.080270904172
C     -0.208904854967    -3.211014919977    -4.507320412874
H      0.644401983687    -3.872084442541    -4.772323301995
H     -1.128891592441    -3.622254339649    -4.981219169922
H     -0.001103222837    -2.196876061589    -4.918010210364
Pd    -1.095967561464     0.094730221759    -0.747667415912
C      1.734526463932     0.523834652703    -0.474947949283
O      0.803123463421    -0.494212916524    -0.356101554588
O      2.945602200197     0.296186340602    -0.542831294572
C      1.143327399218     1.985968881231    -0.475581612452
H      1.659545483799     2.550924976760    -1.264060829737
C      1.374602484482     2.657280860802     0.861519117768
H      0.999313510725     3.699296768878     0.833574000223
H      0.836036074310     2.098895517555     1.656667656093
H      2.459400414151     2.673206421807     1.097822584205
N     -0.280077768025     1.881772761446    -0.697733687621
C     -1.330594924683     2.582214255704    -1.048760205007
O     -2.446320434587     1.901296053325    -1.178477513867
C     -1.279766376276     4.030279427779    -1.282688864408
H     -2.283389569857     4.364305568403    -1.601195758402
H     -0.996296423132     4.518242862690    -0.336354430407
H     -0.536027514276     4.229045920692    -2.073217139304
N     -0.863792431609    -2.934854934798     1.862933245078
C     -1.553931120966    -3.995899513753     2.385499463506
C     -1.536664472703    -4.229866295296     3.749121039853
C     -0.817758192360    -3.406832178873     4.591265104571
C     -0.131730265140    -2.355342335335     4.040880670413
C     -0.188934627483    -2.163823754107     2.643297411548
H     -2.119594180117    -4.645547914021     1.727833540778
H     -2.085938355792    -5.065509352930     4.150243636754
H     -0.794645336008    -3.588463596973     5.662399478457
H      0.456433028301    -1.680327482917     4.629279702475
O      0.513971043826    -1.103874102913     2.212477767401
H      0.601578784210    -1.034599696986     1.217187367141

