# STO-3G

title

0 1
C     -3.665328647830    -1.296921137079    -0.677069343512
C     -2.908930383777    -0.847289353019    -1.795936928423
C     -2.108062766036    -1.767034080253    -2.514363383665
C     -2.078506092374    -3.113494737211    -2.132910168371
C     -2.846812922926    -3.568829662461    -1.031784097201
C     -3.637198495114    -2.671430790337    -0.310160001193
H     -4.395146811186    -0.642740589211    -0.215117694320
H     -2.999119721331     0.176664621218    -2.147466726416
H     -1.511293396790    -1.414576262579    -3.350367210714
H     -1.452692711633    -3.815720593750    -2.676625162010
H     -2.808158380566    -4.615536675012    -0.744201584003
H     -4.236161767365    -3.009252127960     0.531582762459
C     -3.168517802295     1.713660794848     0.286560573136
H     -4.090451098648     1.335766583694    -0.147367699144
H     -2.606461672587     2.400680664818    -0.340528172875
C     -2.870652930659     1.541259328727     1.629582011738
H     -2.025318923224     2.072923637191     2.030557931803
C     -3.706679154960     0.836336098651     2.614280318070
O     -4.647944259039     0.102058981008     2.213182634748
O     -3.298425868182     0.827030724428     3.958710912402
C     -4.104154491832     0.048017173805     4.854595127646
H     -3.691083845043     0.125189441735     5.883628612362
H     -5.152711783731     0.423300716640     4.872768871736
H     -4.100989889651    -1.026061252083     4.559649773819
Pd    -1.771262566107    -0.167904396122     0.401150985678
C      0.296639167121    -1.990217420774     1.220737461514
O     -0.639289513693    -1.827460209288     0.256897102605
O      1.001304445321    -3.010531244825     1.326165469961
C      0.393488744821    -0.783241147353     2.205652350175
H      1.451640665078    -0.666324650761     2.471633114818
C     -0.399946855271    -1.031445395943     3.469794515989
H     -0.336528906028    -0.144232217387     4.132944420038
H     -1.464070065882    -1.210508619388     3.215347404510
H      0.001857891914    -1.917433142436     4.004559619102
N     -0.185886942998     0.392667916193     1.536468266168
C      0.352625613229     1.596176236222     1.353045325971
O     -0.159546579367     2.494071409039     0.594518285980
C      1.570841197125     1.958566588492     2.110458521828
H      1.801135847440     3.022516339012     1.918088487327
H      1.370076073555     1.809119467046     3.184535959911
H      2.409342257029     1.334662054700     1.756260439708
N     -2.222264329111     3.066840789622    -2.376478762976
C     -3.062878825978     3.551372828305    -3.342042374459
C     -2.932101516104     3.124422184070    -4.651414519796
C     -1.947717611588     2.222296266176    -4.999113199797
C     -1.109437718369     1.765294998560    -4.015811821649
C     -1.286192490669     2.235554326917    -2.695631915271
H     -3.840603800916     4.256772407041    -3.073713381380
H     -3.603913345159     3.505446575349    -5.402741397945
H     -1.837930580480     1.885146867580    -6.026369232560
H     -0.316718991947     1.071298268070    -4.211677771701
O     -0.417498836130     1.720293480680    -1.820305920321
H     -0.420161111343     2.113682911048    -0.874616823383

