# STO-3G

title

0 1
C     -2.420773125637    -1.803088989906    -1.965585549492
C     -2.337299977794    -2.075061743921    -3.348030354832
C     -3.422777260344    -2.680023791773    -4.012873524192
C     -4.589675538405    -3.010507167707    -3.295382403872
C     -4.673545428385    -2.736457381810    -1.914625913712
C     -3.591550672469    -2.130079451596    -1.247885169334
H     -1.594220194729    -1.303889703878    -1.466289002768
H     -1.430426618217    -1.814856222580    -3.888576545024
H     -3.358826174735    -2.893135244508    -5.077489882259
H     -5.427692820291    -3.478480007145    -3.807494850223
H     -5.576321349943    -2.988785221289    -1.363448728956
H     -3.650240024724    -1.904852408480    -0.186505254449
C      0.141691299866    -2.310101800567     1.270883125771
H     -0.513555589130    -2.138702471730     2.117881389364
H     -0.210487876607    -2.995256779185     0.506812159484
C      1.430825583226    -1.807227943005     1.200105409332
H      2.058688611247    -2.093874534967     0.368083606525
C      2.102479281313    -1.039501377058     2.261345079421
O      1.412137585739    -0.489537024563     3.159184443933
O      3.483496456266    -0.805656084522     2.153954955240
C      4.059776123787     0.024944321781     3.171782992720
H      5.150040407999     0.132499709150     2.985480496095
H      3.603928089787     1.041122239767     3.157639690017
H      3.921404240899    -0.428961081035     4.179394632319
Pd    -0.039019212401    -0.249514537693     0.255997124044
C     -2.690078587101     0.745683280657     0.795011877290
O     -1.910327324190    -0.350370177019     1.030004367181
O     -3.818583429739     0.868503180734     1.296612737360
C     -2.079198668081     1.837377398383    -0.164224295942
H     -2.096155837983     2.791383332754     0.383786425513
C     -2.896084222302     1.974626585834    -1.431146265479
H     -2.489344251198     2.790805154117    -2.059664380975
H     -2.859156398427     1.025459549223    -2.004360497790
H     -3.952556698101     2.207053344284    -1.181218501402
N     -0.736707000401     1.421582505806    -0.519372538745
C      0.396407583769     1.952055332905    -0.917821387929
O      1.453702819332     1.184671590536    -0.839493165141
C      0.482974192306     3.325286140935    -1.433778818686
H     -0.136803692968     3.387198222252    -2.343084037870
H      0.113427005331     4.008453989682    -0.651588547608
H      1.539078876119     3.545323442418    -1.673029502048
N      1.045353957719    -1.743066568457    -2.339085336093
C      2.171463500621    -1.051501754756    -2.701723022108
C      3.398612353944    -1.692828318984    -2.714943997497
C      3.498723988143    -3.024800279374    -2.368380623061
C      2.352244371893    -3.691289332062    -2.018508858824
C      1.131145858829    -2.986357884556    -2.030551630718
H      2.098730714765    -0.010286326836    -2.991134242545
H      4.279611399684    -1.138804043953    -2.994172277133
H      4.460000749008    -3.531732513837    -2.373791317519
H      2.349628652093    -4.726739203419    -1.741741708773
O      0.065412166728    -3.731763489762    -1.654935785254
H     -0.782688406187    -3.242717780959    -1.780943343030

