# STO-3G

title

0 1
C      2.225047819073     1.413361149314     2.161986925804
C      2.574409957194     2.241020377679     3.250564715796
C      3.632218430002     1.873529849502     4.109220648666
C      4.345215400105     0.680621959315     3.878285989420
C      4.002719343023    -0.145575227005     2.787642383981
C      2.945658799541     0.221616547277     1.932548895990
H      1.429405164763     1.696398089841     1.479072806359
H      2.032491306119     3.169495057757     3.418457496011
H      3.896884673967     2.513596637323     4.947153964386
H      5.161262980738     0.399147374413     4.539310965283
H      4.556646451655    -1.063483188561     2.606307713680
H      2.676981275720    -0.411715660588     1.090640458318
C     -2.911292320216     1.505799456723     1.375819094967
H     -3.535409317904     1.800541124439     0.536115152656
H     -3.225624784456     0.669967229765     1.991529846052
C     -1.797915331617     2.226932461239     1.774104328826
H     -1.291425129815     1.934275637142     2.683394720722
C     -1.299322621771     3.446336518336     1.114495276949
O     -1.824061377126     3.831205595889     0.035313956186
O     -0.148226453111     4.063795149473     1.634101024466
C      0.437983423571     5.081477394543     0.811356362687
H      1.338685477768     5.491020134688     1.316540380586
H      0.753738656792     4.657667196060    -0.169938906636
H     -0.278672949230     5.916883483539     0.641671905476
Pd    -1.106721375709     0.505544468677     0.336912519807
C     -1.689683275435    -2.240335968773    -0.283840913386
O     -2.213587633050    -1.189311683648     0.409282067484
O     -2.269969167477    -3.337413906181    -0.350207377705
C     -0.295264347403    -1.995401618009    -0.991550767701
H     -0.418858935681    -2.253306019957    -2.053198477070
C      0.782490941480    -2.868588694258    -0.384610097048
H      1.737152234654    -2.729234298595    -0.928617133849
H      0.923757747848    -2.589981531586     0.679896507182
H      0.486526681386    -3.936919325117    -0.446331715017
N      0.063379023669    -0.610993597375    -0.783734435047
C      0.872514573770     0.327888067413    -1.209677283123
O      0.705407393024     1.514302438997    -0.668708386471
C      1.894290851115     0.089613598864    -2.236842861498
H      2.610073266803    -0.651493626803    -1.847296766752
H      1.385601724747    -0.283463678752    -3.141221137865
H      2.407923924989     1.045136742272    -2.448764516432
N     -1.843071783728    -0.831313199255     3.432758982514
C     -2.234625138172    -2.117937361944     3.175166023821
C     -1.300654184280    -3.140889953204     3.201177987767
C      0.020231792071    -2.876493546729     3.490990050264
C      0.386277738121    -1.576305793331     3.734399029192
C     -0.620928788084    -0.575159832186     3.692948349820
H     -3.271568647682    -2.329895439423     2.941644792488
H     -1.620707081391    -4.146194805419     2.980057474499
H      0.753204293446    -3.678131727599     3.519423154994
H      1.395672445813    -1.317847850816     3.982602037648
O     -0.236979114136     0.716248662946     3.947803827417
H      0.712402259908     0.897329381437     3.781710961227

