# STO-3G

title

0 1
C      1.047520868326     1.781357167665    -2.468962593194
C      0.624370363962     1.169862126275    -3.666283808027
C      1.570662350759     0.817996443662    -4.649125459699
C      2.940266286367     1.074400501287    -4.437568332426
C      3.363788310252     1.685767899455    -3.240623602084
C      2.416821366242     2.039534980086    -2.259450621890
H      0.325953550294     2.051158921650    -1.702000097693
H     -0.428314506916     0.954130490406    -3.830142964289
H      1.240137285369     0.349258570203    -5.573259853599
H      3.669028622321     0.804630722521    -5.198663101774
H      4.419465124249     1.887988936444    -3.074947413782
H      2.745140872555     2.507921196417    -1.334959547686
C     -2.635021918765     1.827359429128    -1.129477438782
H     -3.357703784738     1.525650989992    -1.883648201254
H     -1.860632157247     2.513963385361    -1.464818316023
C     -2.775501473908     1.521797646812     0.219287850540
H     -2.065144312570     1.944664476530     0.918265187733
C     -3.901020081286     0.764648733183     0.793348170813
O     -4.687476575955     0.147610108911     0.026746674537
O     -4.025239000561     0.682570029408     2.189753923576
C     -5.109120107584    -0.119680529125     2.678770869485
H     -5.103132061644    -0.106561776912     3.790105520962
H     -6.087874614885     0.281729547095     2.330876132121
H     -5.001245242697    -1.176461372809     2.344286825539
Pd    -1.400958464279    -0.051870038908    -0.851459212577
C      0.646645264654    -0.978774165561     0.930097348604
O     -0.328862563792    -0.024273003852     0.855708557161
O      1.374295350712    -1.077701987997     1.931999128394
C      0.798839901573    -1.931895249047    -0.320511946367
H      0.733992451034    -2.965804942909     0.048225761981
C      2.133563827272    -1.723069867303    -1.006004257105
H      2.251166632453    -2.434621546850    -1.846398728239
H      2.187951807687    -0.689835366739    -1.405765416391
H      2.962480838627    -1.879346671325    -0.284472476253
N     -0.259137122574    -1.600991273331    -1.248343559252
C     -0.802175722368    -1.944267063021    -2.391638778549
O     -1.760266698524    -1.156074310111    -2.824382440101
C     -0.399718540124    -3.131257080360    -3.157254278953
H      0.016433960939    -2.782435862383    -4.117312608146
H      0.348953055986    -3.701840399099    -2.585367647494
H     -1.301673508001    -3.744658552221    -3.327522944981
N     -0.216561677378     3.060039508848     1.236458447871
C      0.695975610285     2.465802854004     2.068402230822
C      2.016712243138     2.884308821917     2.045750513986
C      2.419348790206     3.892490751539     1.192908625529
C      1.482054039804     4.453939877525     0.361664254854
C      0.155637841463     3.984699471362     0.434535073475
H      0.381210929251     1.683229753015     2.749264744478
H      2.727502766466     2.407424083539     2.700752549934
H      3.453931388705     4.223880134741     1.172237669808
H      1.718975570541     5.232193074726    -0.335383983144
O     -0.700689346641     4.585628083643    -0.436008323744
H     -1.608305502385     4.242769442354    -0.299434935795

