# STO-3G

title

0 1
C     -3.778399665965    -1.896951888711    -0.453482275602
C     -5.085678852177    -1.761045685784     0.085782149369
C     -6.081947143105    -1.089476636858    -0.634663497336
C     -5.791971379839    -0.559274075796    -1.916929486740
C     -4.508462451689    -0.701757945430    -2.467313491899
C     -3.495573233070    -1.380580940978    -1.744304127180
H     -3.040510571398    -2.518913171532     0.041831944921
H     -5.314233458084    -2.186604609494     1.060118934996
H     -7.079192229640    -0.985173159705    -0.215166844354
H     -6.572499634435    -0.052432174886    -2.479494139065
H     -4.295426749478    -0.332830036664    -3.467960527535
H     -2.517985427070    -1.527380216317    -2.186763940557
C     -3.516594230032     1.494486744048     0.411612271440
H     -4.460767546851     1.093188576541     0.052532223753
H     -3.009379324844     2.261055980817    -0.167645173262
C     -3.049288188630     1.250057813742     1.702853633669
H     -2.180893212254     1.800970112475     2.021214171407
C     -3.745697774519     0.499746380205     2.760025764902
O     -4.865017465171    -0.026195517544     2.527840727676
O     -3.072614332583     0.274131324722     3.972951682761
C     -3.783188839697    -0.498863658199     4.950839908882
H     -3.158431292851    -0.602641141225     5.864242940947
H     -4.735092874224     0.003741848692     5.237317253079
H     -4.006187057081    -1.519476029156     4.564610100874
Pd    -2.041771064961    -0.204653365939     0.205251080474
C      0.388774405634    -1.756567686985     0.336386694156
O     -0.836565649243    -1.779368777627    -0.235372834250
O      1.251957994862    -2.632489059631     0.142045229897
C      0.625241381362    -0.514957113641     1.246671595446
H      1.688918236969    -0.258170229215     1.157691851549
C      0.322769933164    -0.818557241917     2.698940666070
H      0.527807236860     0.078224523567     3.318968647487
H     -0.747594941730    -1.087465150395     2.812005439638
H      0.954169904583    -1.659477846706     3.054916032928
N     -0.281895360479     0.563244972810     0.817419999539
C     -0.020963662989     1.880816837262     0.677852204240
O     -0.887759444892     2.764059624122     0.410954900260
C      1.379836920192     2.330596028379     0.869074051473
H      1.698451861726     2.071497710139     1.891981862131
H      2.002853097080     1.845392814859     0.099452741704
H      1.419772085924     3.427386924388     0.734238208318
N     -1.006702857670     0.522571531969    -2.515693329369
C      0.293483468272     0.104409321308    -2.611069775936
C      1.301220802490     1.031906950006    -2.821731737940
C      1.000310373188     2.373993936422    -2.955229181952
C     -0.313084455317     2.757510126866    -2.863614289900
C     -1.288127680783     1.767721056710    -2.634491646274
H      0.530339783925    -0.949358269020    -2.521990695495
H      2.321369314244     0.694053547602    -2.899278203167
H      1.783932001052     3.107388987498    -3.124403130626
H     -0.625083633226     3.780059681538    -2.931737325685
O     -2.558905259184     2.231332363509    -2.536572647869
H     -3.157559388951     1.485224703756    -2.315388217614

