# STO-3G

title

0 1
C     -0.305537334775    -1.409899812576     1.427234458774
C      1.109106629104    -1.575646403522     1.455031361718
C      1.891539252708    -0.828607798904     2.359288239726
C      1.268308136308     0.067865720221     3.246915979411
C     -0.137479565039     0.221581925167     3.243552294963
C     -0.921284426288    -0.517472384472     2.347832363941
H     -0.976903655851    -2.085968082514     0.901454618090
H      1.596954226782    -2.307278540019     0.814774312459
H      2.970689770070    -0.956849379564     2.374442286590
H      1.872895061404     0.637772254769     3.949169874428
H     -0.610264948978     0.906260915272     3.942675519154
H     -2.001999926656    -0.439219855314     2.329819564210
C     -0.300555498956    -2.716024359165    -1.426039142724
H      0.256825220762    -3.275649210745    -0.681874887550
H     -1.381066384748    -2.767779848539    -1.365020188319
C      0.298965886185    -2.116570754658    -2.513333706015
H     -0.312351846813    -1.673501820494    -3.283799753777
C      1.750221634552    -2.076382580735    -2.754193154773
O      2.537279593177    -2.257001759910    -1.784189919263
O      2.224812247523    -1.776696176046    -4.041222692150
C      3.634884424294    -1.541710616432    -4.151396254504
H      3.885206181503    -1.307707690230    -5.208555514394
H      3.937203680985    -0.670385019242    -3.526800380882
H      4.213891559298    -2.442096912060    -3.845484990257
Pd    -0.027646950287    -0.444507714254    -0.802905729493
C      1.138376188443     1.770917975383    -2.213881304268
O      0.582107876584     0.558035516147    -2.482925039370
O      1.751309651356     2.434269241167    -3.067039790095
C      0.932759938653     2.241542734558    -0.735361108344
H      0.746341607596     3.322880069540    -0.758546688499
C      2.155643121027     1.979600914207     0.112262838972
H      1.957106179022     2.296078865862     1.157093202145
H      2.389416246915     0.895716072340     0.108367616391
H      3.024924480135     2.544513106707    -0.284089352984
N     -0.171724437083     1.454000971947    -0.179724944129
C     -1.385613938625     1.857408581399     0.191984282073
O     -2.386377437932     1.074456883371     0.331062161092
C     -1.582234950100     3.281344182272     0.539011608865
H     -0.826562045464     3.558338736259     1.293856745336
H     -1.488659580081     3.882738821851    -0.379710928375
H     -2.596571716628     3.409241627932     0.960342830473
N     -3.297837926000    -2.339268810448     0.790732650518
C     -3.818161578936    -3.487067972408     1.325292214883
C     -4.561432374944    -4.344269763035     0.533710859620
C     -4.797605553769    -4.045744468444    -0.792219713111
C     -4.275950136113    -2.883804722952    -1.298910357027
C     -3.533056469530    -2.039042803861    -0.443771121266
H     -3.629973967373    -3.729481473516     2.364703607681
H     -4.961303691281    -5.248243087141     0.962734658307
H     -5.384092425051    -4.713173164704    -1.418034784139
H     -4.428895747530    -2.580609196688    -2.315479346342
O     -3.067671033147    -0.936911153241    -1.043937912817
H     -2.748072135635    -0.172984323787    -0.425518546520

