# STO-3G

title

0 1
C     -2.398148020418    -0.125333028827     0.689775858355
C     -2.281369950409    -0.528007433184     2.047430320576
C     -1.886396338441    -1.830891150058     2.364298963123
C     -1.609185522480    -2.758578357453     1.332147065269
C     -1.736439535806    -2.384473230815    -0.012241858183
C     -2.138416393555    -1.068427790347    -0.344349358658
H     -2.835545831013     0.840486439883     0.460937447853
H     -2.503217632806     0.185222524970     2.836511668023
H     -1.778262704071    -2.130404292957     3.402773263956
H     -1.286404867587    -3.764564321013     1.586076838564
H     -1.524089711167    -3.096060912849    -0.804852441933
H     -2.315289623031    -0.810290779654    -1.385585523468
C     -0.613567973570     2.672645092226    -0.637097044556
H      0.327441885035     3.152140150685    -0.884346141144
H     -1.000109434547     2.887908293745     0.358384422544
C     -1.329039807438     1.990959063298    -1.618671087052
H     -2.317692385881     1.609209654690    -1.401661148417
C     -0.971892697646     1.977235537483    -3.048285861675
O     -0.212432551670     2.877317622185    -3.500298263030
O     -1.759722379125     1.194311473872    -3.908971988153
C     -1.332002635260     1.165638958679    -5.277493166581
H     -2.001778185337     0.497466264739    -5.859822110675
H     -1.375854504434     2.182690554922    -5.729146343808
H     -0.292564358868     0.770530513544    -5.354691216170
Pd    -0.136199101100     0.520732158816    -0.124417845665
C      2.056182293520    -0.312357173169     1.538140844817
O      0.799376677834    -0.694024400713     1.194228607131
O      2.715891179306    -0.869172774906     2.434378046536
C      2.579110987134     0.908724161927     0.711196900372
H      3.648827057239     0.748552447924     0.522893986807
C      2.414318205468     2.206831948880     1.469956293801
H      2.778639667913     3.049222078128     0.846329657895
H      1.343441911414     2.371717434041     1.705691365612
H      2.997084159984     2.173091987860     2.414263577533
N      1.771009317874     0.998872241843    -0.511917018215
C      2.134144762250     0.749687327467    -1.790553827557
O      1.314650355307     0.429733496678    -2.699249273301
C      3.560777269498     0.926330655446    -2.148681705310
H      3.877223264475     1.930860084632    -1.820446646472
H      4.146274133838     0.127618707476    -1.666066848411
H      3.659466716616     0.843373142644    -3.246865186661
N     -2.027319957012     3.299078724131     2.242249109237
C     -1.705002914027     3.186674255726     3.568604111212
C     -2.674559710042     2.813944455341     4.483148898844
C     -3.969245219561     2.565349362694     4.071030729895
C     -4.260092163178     2.692663536033     2.736302453607
C     -3.229370278245     3.076323639073     1.856353249844
H     -0.689548338998     3.377994999720     3.895688523778
H     -2.413016608161     2.720295210378     5.524888650849
H     -4.735553737022     2.272673039151     4.784144956715
H     -5.240245979156     2.512865958855     2.341032895210
O     -3.612604220186     3.156472556058     0.555110336017
H     -2.883507106717     3.487105833794    -0.010731256545

