# STO-3G

title

0 1
C     -2.596200327485     0.809561264325     1.591897881056
C     -3.774109740550     0.511179034566     0.855158981550
C     -4.751970846481    -0.337307860572     1.392929448685
C     -4.561316408680    -0.905559990091     2.675219763165
C     -3.410068016558    -0.604432425487     3.422895197855
C     -2.434392707886     0.269718295784     2.895304544708
H     -1.928671746206     1.569233555456     1.185092723466
H     -3.912965873544     0.959627068000    -0.124579024869
H     -5.656747526832    -0.559644361070     0.832241096612
H     -5.313680686481    -1.575100154911     3.085756422279
H     -3.270632768594    -1.035517753631     4.410433811325
H     -1.566333473996     0.549244515919     3.486145794365
C     -0.961356898936    -0.751629660603    -1.090571136009
H     -0.012815018415    -0.984095044953    -1.567188383902
H     -1.285643931367     0.285815636080    -1.153405531323
C     -1.797784124025    -1.764050843843    -0.616027086657
H     -2.788369947476    -1.517213650516    -0.268530887106
C     -1.552996940052    -3.205264182794    -0.806570324617
O     -0.523677122278    -3.586424305341    -1.430739608158
O     -2.597631555307    -4.099412419805    -0.514715066643
C     -2.265639463324    -5.490772770535    -0.611445825236
H     -3.152888055645    -6.100287949587    -0.337248514888
H     -1.966142533114    -5.756766261525    -1.650385311860
H     -1.439412348090    -5.744552049606     0.091772947523
Pd    -0.603343129071    -0.615938904422     1.098298075584
C      1.870552618546     0.296559044391     2.335685345197
O      0.533824081172     0.615150306437     2.287203888792
O      2.670037314256     0.860861339988     3.094088430978
C      2.271870799077    -0.836008738691     1.334966642002
H      3.091443538740    -1.391207969307     1.807718997917
C      2.770031156432    -0.288577296420     0.017111041242
H      3.098193883169    -1.127785374836    -0.630369528067
H      1.958127786810     0.256457692497    -0.501106305921
H      3.624897547241     0.399515582495     0.185203084585
N      1.090435911619    -1.670981296843     1.067610578643
C      0.890068512467    -2.960817143076     1.437295411894
O     -0.255317547300    -3.457607782797     1.635524363137
C      2.074524753326    -3.846061030994     1.526955225758
H      2.648343981963    -3.745434788808     0.589493852724
H      2.666402407727    -3.562772753638     2.411227683228
H      1.724557859936    -4.888829267071     1.637709113626
N     -1.260814775393     2.644110412241    -0.685135742346
C     -2.049617401972     3.232862801365    -1.637917815321
C     -1.494861156511     4.106582092422    -2.554310129992
C     -0.148978862724     4.404702518525    -2.510734047028
C      0.614198058676     3.813405739129    -1.538039267821
C     -0.005125977618     2.934378882712    -0.624249172330
H     -3.106979081150     2.999410918430    -1.680401106323
H     -2.123122324399     4.559929650185    -3.303585168467
H      0.293366243055     5.094111998696    -3.225081407019
H      1.662739471392     4.010718109874    -1.434074826563
O      0.843885596398     2.437186036624     0.282522753206
H      0.478985585083     1.865909140981     1.015000223843

