# STO-3G

title

0 1
C     -2.143737033162    -1.016757900541    -2.180575199967
C     -2.035720951297    -2.172564706824    -2.997342670719
C     -2.321617071347    -3.442516314055    -2.475602954312
C     -2.714803308543    -3.586344142048    -1.124358457243
C     -2.821826850425    -2.457339117943    -0.299505938900
C     -2.539325688058    -1.166698805121    -0.821013407119
H     -2.011551082766    -0.028257543540    -2.619168742017
H     -1.726161001632    -2.067310360949    -4.034246335392
H     -2.226235396393    -4.323764547150    -3.105270547775
H     -2.922034740432    -4.575319436797    -0.723240636835
H     -3.124991702939    -2.563630823179     0.739088019450
H     -2.733102922375    -0.280837173421    -0.219800669493
C      1.661001138847    -0.356570290453    -2.260256435657
H      2.084670585136    -1.347552592698    -2.384983532814
H      1.191771296375     0.087480281005    -3.133947574093
C      1.928515423303     0.445736056655    -1.143568029581
H      1.609325600591     1.477758835347    -1.178892033669
C      2.864614646840     0.112463976492    -0.056198927566
O      3.423473650453    -1.012730086374    -0.039918669057
O      2.952885172921     0.994572334393     1.032670970133
C      3.737087678087     0.537318866631     2.144113095241
H      3.733253533826     1.309897830919     2.943210011975
H      3.312711646241    -0.402080077104     2.568601110112
H      4.793107409139     0.357864864656     1.838380608163
Pd    -0.096769321903    -0.606718154607    -0.900748532453
C      0.524366713754    -2.443615282864    -0.014377746294
O      0.770321878078    -3.317563391363    -0.842581342255
O      0.438354698767    -2.146843361705     1.197931889161
C     -0.433516895726     0.671036589847     2.446297457411
H      0.467491218782     0.102240279505     2.204222484463
C     -1.257303583204     0.255815013680     3.623525260408
H     -1.360417047283     1.112265748160     4.319848029128
H     -2.259506887076    -0.048393638447     3.263890165823
H     -0.771049144715    -0.594438077878     4.141847158599
N     -0.932326624034     1.629937691664     1.769079284925
C     -0.687321924901     2.281909451734     0.621215608009
O     -1.018817252132     1.863956986553    -0.523828118315
C     -0.085346998183     3.616080932857     0.774659422275
H     -0.762439223488     4.212636846569     1.410563560441
H      0.890406811476     3.488769781379     1.273579507104
H      0.035181708400     4.089606934649    -0.215891095851
N     -1.368514122075     1.474485151397    -4.157765140231
C     -1.726545542642     1.085396987771    -5.420884327857
C     -0.897080210260     1.368504820055    -6.491292612065
C      0.282077470944     2.059646394401    -6.300438234634
C      0.608717816509     2.445594611285    -5.025436681943
C     -0.276009355516     2.127900286417    -3.973064140474
H     -2.651731925227     0.542182662730    -5.575213159524
H     -1.184278731315     1.054566443330    -7.481722619962
H      0.933490026317     2.293031452058    -7.138632758481
H      1.501958720525     2.994602851652    -4.803611619848
O      0.143798426729     2.547572548391    -2.766784786531
H     -0.461598295327     2.304091330440    -2.005594695779

