# STO-3G

title

0 1
C      1.118245267812     3.525120237924     0.391599323523
C      2.109224989213     3.854108264432    -0.568054939076
C      1.868846841612     4.819326279403    -1.559348577563
C      0.628738802476     5.486187150796    -1.604264458142
C     -0.359742331966     5.176784871947    -0.648116445476
C     -0.122255481185     4.207298265247     0.339111512288
H     -1.605422609115    -0.328332513190    -0.998071828010
H      3.070250937223     3.340980387114    -0.536829439556
H      2.644238154603     5.056001889491    -2.284357837295
H      0.438743051313     6.239984401154    -2.364814126186
H     -1.316861545115     5.692713951556    -0.673909805493
H     -0.904014057905     3.973340373352     1.053643172624
C      1.443914537544     2.487516710016     1.399697949545
H      1.774691428423    -0.012506566528     1.146965507326
H      2.502175303593     2.230696877480     1.433004029366
C      0.613798186776     2.045615756173     2.473327213475
H     -0.392661602631     2.428620803076     2.563150186127
C      1.127256176225     1.386032979515     3.682377996498
O      0.350817357530     1.215995974494     4.657204848672
O      2.367708517033     0.726283445043     3.612873672617
C      2.755065704356    -0.002330823891     4.786819595662
H      3.750100510390    -0.469452335714     4.621494357926
H      2.831935735009     0.675871144176     5.667156787746
H      2.024403819455    -0.813689146684     5.009163622414
Pd     0.443497576663     0.626586344406     0.829020506863
C     -1.024799585974    -2.094911721427     0.706287561922
O     -0.194458435866    -2.867877741796     0.091894964114
O     -0.733350084258    -1.281886867766     1.662892623407
C     -2.468410939351    -1.879300085095     0.096870925986
H     -3.229910498448    -2.015116442036     0.870410191899
C     -2.793651027236    -2.741487185030    -1.099000067095
H     -3.794731640115    -2.467146836912    -1.490159669037
H     -2.041323070374    -2.571207477393    -1.897227691365
H     -2.787243016452    -3.812165146050    -0.809933579800
N     -2.389047348751    -0.467017667458    -0.350319955729
C     -2.500523323934     0.584746494565     0.492206344678
O     -1.672828467224     1.552396536048     0.476349716928
C     -3.640156362502     0.628188465085     1.424987061104
H     -3.476121873570    -0.118688141867     2.218450444564
H     -3.684782415392     1.637874331885     1.870118426218
H     -4.562706338493     0.423662988553     0.853770630793
N      0.754443882745     0.043370865391    -1.264791907272
C      0.603886057839     1.152764664447    -2.056227446583
C      1.428094141819     1.338200778882    -3.147282771790
C      2.389875076202     0.407345778405    -3.468324638370
C      2.509051194366    -0.705104498396    -2.677376434148
C      1.649150487784    -0.867237610560    -1.568966613210
H     -0.147803095179     1.894617283884    -1.810398353510
H      1.309180495398     2.225974121713    -3.746825937149
H      3.036599201634     0.550614275192    -4.329780976358
H      3.228344478290    -1.473093821418    -2.880747376873
O      1.848674333465    -1.967506155711    -0.890167611670
H      1.034092218269    -2.352047053955    -0.300080099306

