# STO-3G

title

0 1
C     -1.078992483194    -1.158089648463    -1.812091713071
C     -2.435178557457    -0.827417437810    -2.013033750483
C     -2.943174394505    -0.679461432514    -3.318121357774
C     -2.094720497750    -0.861097965899    -4.429009207501
C     -0.739751016006    -1.192786292109    -4.231615012678
C     -0.232645921905    -1.340973953480    -2.924409801631
H     -0.697334200049    -1.253525160073    -0.799985206631
H     -3.088933393638    -0.685330514000    -1.153933648360
H     -3.990331357047    -0.425384838726    -3.465890572226
H     -2.487195345268    -0.748469608010    -5.437072306605
H     -0.086303069977    -1.338266630466    -5.088844599919
H      0.813531816455    -1.601394349894    -2.781135633914
C      0.559862334597     2.095540239298     3.121951221484
H     -0.427147968331     2.544719429033     3.040483755135
H      0.743044956023     1.482770076353     3.999308357057
C      1.600468906770     2.410472006827     2.248088104053
H      2.577640372126     1.987232467955     2.426139656413
C      1.538893064044     3.475691981839     1.233222826152
O      0.534915208776     4.233401206192     1.171243817140
O      2.577178263128     3.561957492437     0.289907154603
C      2.452863942045     4.611033833055    -0.681262602125
H      3.326105918242     4.584168869756    -1.368215635803
H      1.526839219857     4.483909184043    -1.287243865398
H      2.432611896497     5.608212076537    -0.185142514051
Pd     0.628835215037     0.378560152010     1.687836208043
C      2.424674856386    -1.676991287914     2.525969621524
O      3.389672678647    -2.270820722964     3.031860732810
O      2.089278712326    -0.400861961066     2.827153649052
C      1.493012694199    -2.357052291337     1.461273987103
H      1.416981805552    -3.413965482024     1.746272748505
C      2.078537854698    -2.279303605070     0.070106395721
H      1.424557094453    -2.831429636014    -0.635378037982
H      2.145485705752    -1.220467199505    -0.252674411785
H      3.091100127813    -2.734887886533     0.055212569722
N      0.213983882831    -1.624950107025     1.444840142865
C     -0.978035188176    -2.094509476888     1.755224190085
O     -2.022923407018    -1.371760295662     2.004280019123
C     -1.203107265871    -3.554112857862     1.797088400901
H     -0.879609313048    -3.984088442214     0.833442136702
H     -0.641638303225    -3.974113987192     2.647855232252
H     -2.281885271828    -3.752376318875     1.943316591805
N     -0.704513469114     1.267710537885     0.405798095177
C     -0.265709561927     1.751941701533    -0.797338042824
C     -1.090085482491     2.546394960722    -1.565128982926
C     -2.362356819874     2.855108599090    -1.136301898754
C     -2.796999041309     2.330532884370     0.052447456661
C     -1.934938579944     1.505717926508     0.807126208954
H      0.738394325679     1.525018273754    -1.135979338086
H     -0.735360586213     2.923255094365    -2.509176673743
H     -3.013524487026     3.484014666669    -1.736960132330
H     -3.783233066623     2.509665573895     0.429120541505
O     -2.437826085161     0.974737121344     1.881696574658
H     -2.136773285119    -0.174696716304     2.031123951057

