# STO-3G

title

0 1
C      0.783625988534     0.303040667731    -2.332394354092
C      1.506856599800    -0.747979055655    -2.934859689007
C      1.310563483560    -1.043977962151    -4.297921988045
C      0.398296343910    -0.289506420710    -5.062581091157
C     -0.311719798086     0.770567153403    -4.465339904851
C     -0.117392519407     1.066701076749    -3.101510674901
H      0.947811917290     0.522409336112    -1.281066457833
H      2.221402867451    -1.318393438510    -2.347052221040
H      1.870456686226    -1.853025305879    -4.761711663971
H      0.250136345035    -0.517625298849    -6.115974546357
H     -1.001394098010     1.367305330439    -5.058747548482
H     -0.648193128195     1.907775721860    -2.657172401009
C      0.920530789480     2.187497425765     2.202005429083
H      1.940460762292     1.845273461835     2.349286326375
H      0.275235663213     2.221868435841     3.077167787920
C      0.488117939129     2.713837910723     0.988178635570
H     -0.505214701541     3.136974093910     0.935188879392
C      1.358852392810     3.012851207125    -0.158995318665
O      0.845538369736     3.554793660596    -1.172816344173
O      2.709830435008     2.631035496364    -0.135382870869
C      3.441279432346     2.827410681003    -1.353572594153
H      4.486220657975     2.475615788850    -1.213715459401
H      2.991148558165     2.240404962202    -2.186446709858
H      3.468497754634     3.905159305260    -1.631201540702
Pd    -0.024356330718     0.394784133773     1.244918420476
C      1.877623951744    -1.583615977008     0.527089845356
O      2.873548509233    -2.113686109900     0.005046427206
O      1.839458555662    -0.289250261035     0.914994591233
C      0.553310138975    -2.390901698781     0.777989986684
H      0.865622463996    -3.362157961243     1.183977241965
C     -0.226713489221    -2.633850655917    -0.493481673619
H     -1.102767359567    -3.277608177313    -0.273585840459
H     -0.594355280656    -1.672544585146    -0.903807087097
H      0.413417812759    -3.137218047963    -1.248200393087
N     -0.299735171215    -1.592864781193     1.672487773901
C     -0.783718616707    -1.944820697957     2.841555179421
O     -1.309353809543    -1.141435450647     3.718561520673
C     -0.760744098288    -3.364934105434     3.248586682398
H     -1.251356737309    -3.961987867428     2.460951006405
H      0.287302238180    -3.669439495526     3.404867643969
H     -1.315727380615    -3.482986140605     4.198620202961
N     -1.966167624076     1.038833755853     1.291493264749
C     -2.600039169518     1.254396006568     0.098750417942
C     -3.801882083291     1.929650302843     0.073316510902
C     -4.382934127951     2.374762609103     1.241802021228
C     -3.747287497779     2.115853026995     2.428276960275
C     -2.523343962771     1.411111981941     2.426337347320
H     -2.143673628671     0.917078031636    -0.824033832301
H     -4.287334842485     2.111914847344    -0.871731881680
H     -5.329525634149     2.908459696135     1.223649043360
H     -4.156828380502     2.412530124037     3.372993608284
O     -1.991911118343     1.152932848334     3.578240296368
H     -1.511920467648    -0.016533344942     3.629272390162

