# STO-3G

title

0 1
C      2.055395642474     1.113551838056     1.813688647829
C      1.726356066908     0.358798574406     2.974610889384
C      0.934761915927     0.921786219221     3.976447849269
C      0.449790961838     2.250446107892     3.849179365747
C      0.772910461004     3.015501874652     2.726660898842
C      1.579928141004     2.455349132229     1.698557528793
H      2.765592388761     0.723444624791     1.089243761551
H      2.101479388311    -0.656095385249     3.073795892578
H      0.679076253297     0.340935150181     4.858708506696
H     -0.175535818778     2.670304314939     4.632575228711
H      0.421605957683     4.039916879780     2.637896851776
H      1.960296538133     3.090699297856     0.904365496782
C      1.578440887257    -1.986613160777    -0.130286281107
H      0.781670164640    -2.469776766459     0.428188590859
H      2.200615325957    -1.280617579467     0.405717523774
C      1.828262652208    -2.204959796351    -1.441653443077
H      2.643638046281    -1.669161998887    -1.907017731685
C      1.051707601907    -3.089391190992    -2.323732490931
O     -0.069349766032    -3.529947225980    -1.944645306878
O      1.505661733109    -3.298861766344    -3.637822165890
C      0.700965493728    -4.162483552092    -4.452453291305
H      1.168339261046    -4.259960250179    -5.456063839021
H      0.630876812117    -5.178523014685    -4.001918862577
H     -0.321355016228    -3.743261688279    -4.585055847362
Pd     0.296498017501     0.968117465406     0.173389615604
C     -2.269745792108     0.274859079056     1.202517699022
O     -1.017687220861     0.528039938022     1.615277816632
O     -3.283989300315     0.407926361336     1.914843592337
C     -2.381803737600    -0.294669283632    -0.246389365261
H     -3.303769013781     0.118837124104    -0.674506931182
C     -2.487388129661    -1.809971156574    -0.177826959450
H     -2.676109886353    -2.256008127162    -1.171639658201
H     -1.543246443774    -2.231645699405     0.219262036701
H     -3.321308930878    -2.105032667953     0.493732204795
N     -1.172809501656     0.078740661971    -1.037459932862
C     -0.949707232377    -0.172171619000    -2.294660484569
O      0.221800483213     0.030833941545    -2.880443917704
C     -1.976162420285    -0.672140947211    -3.228392117602
H     -1.737979222433    -1.727661184252    -3.448524621906
H     -2.989175302142    -0.577740792282    -2.813897300027
H     -1.916943272797    -0.076206533327    -4.157051604101
N      1.517872088288     1.731810859069    -1.344691157677
C      1.027701860062     2.917999673846    -1.834835475082
C      1.864451735628     3.807042766565    -2.467515206667
C      3.203185890253     3.532245696692    -2.626538034055
C      3.701340617267     2.367281612654    -2.112207505923
C      2.855655936460     1.464188563154    -1.422939486836
H     -0.029906724236     3.139344961582    -1.746429581289
H      1.459594915811     4.726270014353    -2.859511512084
H      3.855993122847     4.233987672268    -3.139326970646
H      4.741191626891     2.115534744795    -2.181381386915
O      3.393691236979     0.440679838810    -0.922576796404
H      0.906101348185     0.501926271363    -2.275127152502

