# STO-3G

title

0 1
C     -0.293358600136     0.974606764170    -2.940801191489
C     -0.946939017624    -0.230411666037    -3.340845327751
C     -2.353321285424    -0.247099988653    -3.521217364134
C     -3.093871988177     0.926436863134    -3.326863003576
C     -2.446272736575     2.131380926498    -2.950524861753
C     -1.061075338403     2.160677817082    -2.763320056687
H      0.791830477489     1.027094154804    -2.950271767868
H     -0.344857652850    -1.098281149339    -3.589679781354
H     -2.844831905884    -1.162916876928    -3.838361296439
H     -4.171308492357     0.922153009883    -3.476155392785
H     -3.030757121412     3.036047228721    -2.803601971669
H     -0.567105401278     3.079178094310    -2.465582111566
C      2.764382325704     1.165475213219    -0.298842248595
H      3.570654354741     0.434594087361    -0.263975049273
H      2.318863517670     1.315118353440    -1.277377910975
C      2.299465297280     1.842136404616     0.779523135373
H      1.453094168087     2.488231388770     0.626814399906
C      2.822392306818     1.671861510558     2.160113390389
O      3.666479742453     0.762903802998     2.372520827845
O      2.364484006791     2.422265369941     3.263346020525
C      1.309885869181     3.371614905745     3.055049718922
H      1.084046197218     3.878785654301     4.017455323272
H      1.611071669484     4.154628916577     2.323353033782
H      0.378127366675     2.863902532163     2.718249150765
Pd    -0.022969712411    -0.328259325748    -0.975674614656
C      2.085582748258    -2.244203694583    -1.413917131599
O      1.458602592980    -1.219273662195    -2.015213314042
O      3.022627653764    -2.889273304478    -1.919400471000
C      1.511132400048    -2.624889804533    -0.007241539608
H      2.368079846132    -2.930798069315     0.606883521244
C      0.544427864524    -3.785145090178    -0.113064046793
H      0.169390335103    -4.059064501239     0.893985552005
H     -0.316182670101    -3.497752279813    -0.751100375870
H      1.053261482976    -4.665689934272    -0.559412323145
N      0.756594898467    -1.483922286264     0.554285856821
C      0.738704225567    -1.099782185870     1.793110746948
O      0.025161408671    -0.061448771537     2.210164879265
C      1.524259052458    -1.776151279359     2.837612602705
H      1.227275679538    -2.836339327731     2.883629846304
H      2.595662498147    -1.660969664855     2.593607088375
H      1.333158511001    -1.289991086003     3.813063954174
N     -1.562907603070     0.533100067451     0.089974009450
C     -2.709811450918    -0.215615130800     0.106726836032
C     -3.913022908278     0.367985448497     0.430222296690
C     -3.993340560862     1.709184202198     0.727765920443
C     -2.854098124045     2.465449635358     0.679938513994
C     -1.617813007673     1.879452740258     0.312109393751
H     -2.660945698892    -1.277895698456    -0.102728952385
H     -4.804053666555    -0.237788269057     0.453898168544
H     -4.946567841169     2.162110297928     0.987304491614
H     -2.864268243453     3.518507623246     0.876341880175
O     -0.614551251417     2.637891571712     0.249110427772
H     -0.567841889462     0.312707757735     1.470055768894

