# STO-3G

title

0 1
C      0.190315292432     1.137578029825    -2.285988788264
C     -0.433928410686     0.135730061337    -3.084416829938
C     -1.766190878746     0.325701219413    -3.542328057027
C     -2.458220416904     1.497669097946    -3.212189393616
C     -1.836427430779     2.497232742880    -2.417492154475
C     -0.526661798753     2.322572050176    -1.960840641106
H      1.246683452428     1.071051701155    -2.042116390106
H      0.154574729840    -0.708697624236    -3.430242660462
H     -2.226914051995    -0.425821771080    -4.178400767177
H     -3.470485342128     1.656146963191    -3.577370902131
H     -2.380249979833     3.406918321474    -2.173631871086
H     -0.040461121565     3.091544336751    -1.368179922799
C      2.975335762984     1.117950422349    -0.019747630218
H      4.010068070122     1.204572002087    -0.343946728968
H      2.510952643597     0.151479795228    -0.194483607833
C      2.285384792399     2.130056571620     0.561736578338
H      1.265219256567     1.941852651934     0.849688910710
C      2.853477171387     3.475601712860     0.840755518328
O      4.018317927400     3.730433197834     0.443517386373
O      2.138883814367     4.496000004170     1.504231959180
C      0.836086670928     4.199639856508     2.025698765544
H      0.445277149734     5.096512734939     2.552512920344
H      0.122037116334     3.955809421876     1.208028249152
H      0.878755587552     3.367812393174     2.765272207802
Pd    -0.055334109400    -0.681804859393    -0.714586773752
C      1.777701792840    -2.798603733284    -1.235127993746
O      1.520509289460    -1.538801942660    -1.652223188093
O      2.560331986975    -3.582732317336    -1.799451544728
C      0.981058980819    -3.203069212217     0.056444731457
H      1.635677778003    -3.866857810001     0.635558175687
C     -0.289950127015    -3.951593894751    -0.273836852763
H     -0.810765562204    -4.230227232419     0.665606505429
H     -0.962734834202    -3.308453949910    -0.876071906734
H     -0.052793234147    -4.873681642035    -0.845270249563
N      0.586224851366    -1.958838718401     0.749139875192
C      0.924464049087    -1.581228376309     1.960383195131
O      0.719606331299    -0.403763983186     2.471509276988
C      1.604767648404    -2.529576659477     2.865740670344
H      0.976117248312    -3.430546419307     2.967619243468
H      2.599061661799    -2.762056022060     2.448649593291
H      1.734238597786    -2.059703792825     3.859410990313
N     -1.760134662266     0.067514957379     0.129999690067
C     -2.940758394018    -0.308636133817    -0.449013269079
C     -4.114209469035     0.326525016927    -0.100731045191
C     -4.111114071222     1.343401875737     0.828068214128
C     -2.921552777159     1.691673934119     1.411473338544
C     -1.736743332835     1.010810501072     1.049390908655
H     -2.949740406054    -1.097548961226    -1.191707397671
H     -5.037260803539     0.030487835934    -0.570969160594
H     -5.032890888271     1.851197684220     1.099214707305
H     -2.856629155778     2.460053948803     2.154552825766
O     -0.660116437813     1.378049544021     1.666745393601
H      0.125231347175     0.431879538175     1.994521726846

