# STO-3G

title

0 1
C      2.928645235846    -1.036291276987    -0.484485010056
C      3.048465658375    -1.696578678816     0.770392646274
C      4.214982851630    -1.522758323156     1.551583472300
C      5.267769591489    -0.728190603871     1.069755153946
C      5.161094031547    -0.079365355736    -0.186847730405
C      3.998475101267    -0.223477372529    -0.952909517690
H      2.124974493779    -1.296560206958    -1.169574036158
H      2.260352654693    -2.373931644472     1.083943371433
H      4.304331455993    -2.032711604911     2.507125175618
H      6.177232652863    -0.616839352318     1.656080623551
H      5.983100668485     0.529568612174    -0.555191294873
H      3.908413733656     0.274180582006    -1.914468217542
C      0.456381290594     0.148912914170    -2.626593811029
H      0.006254999548    -0.841929038421    -2.643328268344
H      0.076681732718     0.876539957874    -1.914852379127
C      1.486003943409     0.523414127430    -3.420888269840
H      1.880102866225     1.525415016900    -3.309204729447
C      2.136559842170    -0.324222575214    -4.432441586750
O      1.741279450066    -1.507436518357    -4.615266999860
O      3.253533861140     0.185972159649    -5.118236141293
C      3.874230816010    -0.706505295186    -6.054311920367
H      4.737103560082    -0.196325035293    -6.533671979847
H      4.251398806322    -1.619457741621    -5.539518583270
H      3.157103568937    -1.002966980221    -6.853244691965
Pd     1.030297709488     0.119449598843     0.460163952736
C     -1.142580858503    -1.770821240957     0.693704327364
O      0.147014485970    -1.678332682430     0.320634697970
O     -1.752639210516    -2.846958824338     0.830592184875
C     -1.856728617764    -0.401049544562     0.913587547511
H     -2.536419488404    -0.536890748005     1.765084875766
C     -2.673912969561    -0.024009774985    -0.307130171174
H     -3.186894508992     0.945003997288    -0.157085949831
H     -2.014633683035     0.065715691802    -1.190790077604
H     -3.438088105605    -0.804241018338    -0.508553395860
N     -0.851847836206     0.662336166688     1.149044159451
C     -1.031398169557     1.761427512919     1.823141868315
O     -0.105049778372     2.692022551171     1.946835902482
C     -2.280409719618     2.032782309586     2.560013388939
H     -2.194388577267     3.012101071481     3.066792074453
H     -3.117896283858     2.072352342003     1.846848772769
H     -2.427582031697     1.243997087065     3.317722639059
N      2.013021380580     1.949803898915     0.640407019230
C      3.142500864514     1.954265064404     1.421205881343
C      4.148350446954     2.862588095994     1.180600636449
C      4.065114049835     3.759318374841     0.140424086998
C      2.963013419476     3.731850793438    -0.669172992925
C      1.926698266674     2.795053076471    -0.439602534921
H      3.221630759287     1.267761327910     2.256080541127
H      5.018386908011     2.862182104618     1.816378787441
H      4.866037202499     4.471095552559    -0.041308112515
H      2.854563446427     4.395345281661    -1.503758431184
O      0.955131325222     2.794230058263    -1.233765107022
H      0.766467277072     2.475715291392     1.401929748916

