# STO-3G

title

0 1
C      0.095096136689     2.583181710213    -1.496519803378
C      0.386055006302     3.960068209144    -1.600844956423
C      0.003833726098     4.677771422638    -2.755488394986
C     -0.667040595171     4.030605635991    -3.807826572600
C     -0.965699796478     2.656767210444    -3.702574477358
C     -0.586642401230     1.935895647099    -2.555270888503
H     -1.311467326835     2.783817889391    -0.128230265579
H      0.899012131715     4.496091425784    -0.806982134206
H      0.231231721404     5.739518001508    -2.822497682803
H     -0.960092286554     4.588246081294    -4.694024112123
H     -1.496808320218     2.150201857521    -4.505481194491
H     -0.827332429499     0.878438453136    -2.475179440743
C      2.119483766441     2.662492890740     0.885065589384
H      2.864755529359     1.986356616859     1.294926668174
H      2.462944291510     3.348777219608     0.121570681077
C      0.878629111082     2.855759057129     1.542312819546
H      0.238954406883     3.675720285570     1.253596708015
C      0.543870901367     2.274491263061     2.857223174941
O     -0.566804106864     2.554053905377     3.380451424443
O      1.508614513162     1.523368869430     3.550303349777
C      1.113022994279     1.031015584274     4.838914654992
H      1.939408165796     0.427966828512     5.271735657470
H      0.890528386935     1.872396352061     5.532905744990
H      0.216709439696     0.374416387810     4.757899986692
Pd     0.695930886670     1.311368455913    -0.063710816339
C     -1.228926548840    -1.305490771689     2.390610485223
O      0.087186971682    -1.146454485618     2.627635668725
O     -2.000117265327    -1.742222427289     3.264790909881
C     -1.824375961514    -0.900944584685     0.992844398453
H     -2.897382379475    -1.097223816219     1.119435747497
C     -1.354138372623    -1.778277927181    -0.143265967337
H     -1.912250544788    -1.515800268142    -1.066086166775
H     -0.281725694475    -1.619183351514    -0.333030913429
H     -1.531665247957    -2.847515355214     0.095603182905
N     -1.537767118694     0.498677625076     0.609132489232
C     -2.324230062200     1.482343819671     0.907597926565
O     -2.095669197928     2.740510617493     0.481091858340
C     -3.525120043080     1.353564316354     1.757489966245
H     -4.271003146883     0.733147104648     1.235997889606
H     -3.220190847209     0.920176939827     2.726309074319
H     -3.949177504211     2.359605717715     1.935470146704
N      1.805697546821    -0.216155909701    -1.289904689513
C      2.277324128690    -0.616796099908    -2.507618321953
C      3.182672326493    -1.661489623271    -2.577494401102
C      3.618935759692    -2.298344294002    -1.429597650758
C      3.137811624272    -1.869054669738    -0.217303829643
C      2.222690579524    -0.798321696280    -0.197487096642
H      1.933915015014    -0.124206858147    -3.410106829098
H      3.549219542274    -1.978584996537    -3.540188340269
H      4.330814364349    -3.117721836810    -1.485745908443
H      3.440374677615    -2.304710826788     0.713629554096
O      1.759212457677    -0.357147432629     0.955220898514
H      0.747235295043    -0.851400974486     1.897181149108

