# STO-3G

title

0 1
C      0.626089032219    -2.642049840507    -1.234538581857
C     -0.371917465139    -3.634417999990    -1.164325603302
C     -0.014220368336    -4.996552650024    -1.218006209093
C      1.339728851593    -5.366564112326    -1.345842270644
C      2.337060727521    -4.373111891100    -1.419726178241
C      1.979567333819    -3.011375435858    -1.363533187608
H      0.348361988025    -1.594280534587    -1.198463155239
H     -1.412921468550    -3.335683123704    -1.070086268112
H     -0.784547703501    -5.762967610426    -1.162983612007
H      1.615303036163    -6.418277323921    -1.388650678227
H      3.382287009025    -4.657597454305    -1.521270340559
H      2.748229750376    -2.243514848676    -1.421957664287
C      0.706313398503     0.049785325468     1.044896423240
H      0.776250296544    -0.157383869766     2.109356723212
H     -0.247963217826    -0.169278047184     0.575792380986
C      1.739023347878     0.515688194208     0.304486397306
H      1.602730961343     0.668129722659    -0.760336658917
C      3.082880800262     0.813064418102     0.825178269381
O      3.957546097157     1.231512920905     0.020637885540
O      3.396522246526     0.529942371394     2.167134272707
C      4.704386406173     0.927954191910     2.599887996919
H      4.831842253483     0.666285096289     3.672108220510
H      5.492888910880     0.401779307066     2.015696053832
H      4.834933948281     2.029189213629     2.494143731823
Pd    -0.716375513099     1.829425033861    -1.673083857881
C      0.656196432436     3.508108979150     0.852604679943
O     -0.019016902036     3.377196529988    -0.125228413275
O      1.306566606598     3.668285605306     1.832270364619
C      0.712200143616     2.203971730241    -3.115243587806
H      1.650935179948     2.530064501086    -2.642469560702
C      0.148121761583     3.290579064910    -3.991013665574
H      0.901225662670     3.568749705743    -4.757965006377
H     -0.762907068099     2.924330993982    -4.505505136625
H     -0.095655168724     4.180606940252    -3.376029031399
N      0.899579343158     1.020954343849    -3.928034919977
C      0.082560704107     0.057113994314    -3.739558928658
O     -0.871551554121     0.086076577315    -2.768596494112
C      0.135610487817    -1.127464779986    -4.597489925911
H     -0.834555163261    -1.223870181839    -5.111953759600
H      0.950415808427    -0.996050332138    -5.333363725504
H      0.334357235896    -2.011917955821    -3.968019237963
N     -2.324762100167     1.194034179435    -0.278756366164
C     -2.828163120954     2.080421427412     0.638091967376
C     -3.792090784110     1.674408125919     1.538246355758
C     -4.258841686482     0.379294113906     1.530289606579
C     -3.749882292124    -0.486922367396     0.599721667569
C     -2.772256573721    -0.032624977346    -0.310484544375
H     -2.471224598383     3.102878189082     0.657816983420
H     -4.173213247309     2.379859046036     2.259159377273
H     -5.012810978622     0.053937818381     2.242423187265
H     -4.072031493924    -1.507536636302     0.538502338657
O     -2.356670923840    -0.960935095439    -1.149633705617
H     -1.703336424070    -0.652167705855    -1.915646044929

