# STO-3G

title

0 1
C      2.558533137856     2.456367067960    -0.423693244712
C      3.513607079555     2.024379839733    -1.389959648302
C      3.548171342556     2.613462490157    -2.655232013099
C      2.632287682761     3.647308789258    -2.993483162537
C      1.686289564825     4.082980974659    -2.061376760560
C      1.643988715512     3.499238681554    -0.760633453352
H     -2.824382471072     0.107516722762     1.126776015854
H      4.214309849427     1.235153384260    -1.130969182696
H      4.282354573177     2.282865426899    -3.386433217001
H      2.684634247912     4.109185397129    -3.976769673527
H      1.007391517476     4.896792295355    -2.303336533203
H      1.044797334921     3.964336384141     0.015827833415
C      0.094834266252     1.903315718661     1.284965389883
H     -0.773976294440     2.556415529859     1.413506201208
H      2.636978794818     2.114726666309     0.602325203594
C      0.786403720651     1.372081639656     2.317923271503
H      1.603964250015     0.681819076121     2.135627120593
C      0.495109373558     1.612515077366     3.742396492378
O      1.318946226959     1.197092857429     4.599678624642
O     -0.553753067268     2.481704673532     4.100037622071
C     -0.820832458176     2.576746889153     5.506224612810
H     -1.674255474881     3.266917458694     5.675297982007
H     -1.092423123251     1.578224212987     5.921772768148
H      0.063820382395     2.975276385619     6.052837818835
Pd     0.455344413435     1.393722864203    -0.622469995378
C     -0.631408658916    -1.017733180922     0.491128049624
O      0.552665961589    -1.495821286401     0.424658577102
O     -1.064811734439    -0.019596513149    -0.241442926526
C     -1.624952440217    -1.554969714560     1.537504442616
H     -1.062626556699    -1.875867134528     2.418838067696
C     -2.450894936950    -2.711102714365     1.018259148994
H     -3.120248013090    -3.073891194187     1.825518268218
H     -3.073790009973    -2.364883543621     0.168212747798
H     -1.789743065724    -3.539698261500     0.690832156438
N     -2.527581625774    -0.469392037247     1.908358748131
C     -2.618800708736    -0.017576402615     3.186833478684
O     -2.011002842299    -0.503071798204     4.169485993038
C     -3.517550956190     1.139944659799     3.377430105173
H     -3.541187812978     1.393177573925     4.450874907925
H     -3.109263251666     1.979611309620     2.792324830418
H     -4.522195152828     0.856569436745     3.019765282964
N      0.829654895425     0.573766620826    -2.576529637171
C      0.452286120958     1.238065407539    -3.711939448037
C      0.845768267300     0.772700282542    -4.950049388584
C      1.613635371401    -0.366020727491    -5.056232956980
C      1.963156674793    -1.023359187866    -3.906553216753
C      1.529579786294    -0.523104210603    -2.659000540275
H     -0.142846288464     2.140362999025    -3.635258322781
H      0.549518238599     1.307107433233    -5.837471306945
H      1.928658610343    -0.737268425425    -6.027832056372
H      2.548496831937    -1.921126091444    -3.918816565147
O      1.914500095205    -1.247234927569    -1.628581081014
H      1.369335881562    -1.236597012303    -0.716385415410

