# STO-3G

title

0 1
C      1.338020811936     2.441119073084     1.136837484965
C      2.542322568503     3.067406285705     0.743812645666
C      3.025214943662     4.201290194125     1.423636174215
C      2.311401786599     4.731576553579     2.516042664117
C      1.111187734692     4.116499464624     2.921906662136
C      0.634357795720     2.983066026845     2.237871604504
H     -1.026662832430    -0.177991517093     3.123350710688
H      3.105867085050     2.659026981688    -0.093307775515
H      3.956243146019     4.666746058133     1.107222423636
H      2.684386013577     5.607042720119     3.042521517711
H      0.552397077239     4.518648883077     3.764630304294
H     -0.302939103797     2.524313311918     2.556959518883
C      0.809058267581     1.231270641254     0.382073266627
H      1.638573930392     0.682366740503    -0.075482601267
H      0.345894945297     0.547138675892     1.100452053952
C     -0.204458684681     1.596258475079    -0.737204563515
H      0.240338548945     2.322615724277    -1.409264707689
C     -1.567729819522     2.041560198023    -0.369397389689
O     -2.252510164044     2.639060658935    -1.239886364472
O     -2.129407081657     1.647467435795     0.858226026616
C     -3.474270910718     2.081244320469     1.101157426600
H     -3.801035962802     1.723240562037     2.101030606679
H     -3.539173357854     3.192981375703     1.091441250087
H     -4.168331705643     1.662240283330     0.337461820278
Pd    -0.415682110859    -0.052553032722    -1.973806156601
C     -0.639179806139    -1.666679530872     0.495319914439
O      0.637804955734    -1.980911001544     0.210652242201
O     -1.352568524468    -1.056366545205    -0.333554751725
C     -1.097743018156    -1.983218098007     1.946087127337
H     -0.725508060590    -2.977686697219     2.220967602603
C     -2.597524911821    -1.943671656042     2.122524482538
H     -2.853802615620    -2.168335842590     3.178593307107
H     -2.974810620848    -0.930992812200     1.868882638555
H     -3.081357745865    -2.691403115998     1.460846319306
N     -0.489387469864    -0.996045789514     2.860316626530
C      0.835562622876    -1.060868552838     3.138685031301
O      1.613440772497    -1.890501860338     2.590989293501
C      1.390626359148    -0.093260062093     4.101445468578
H      1.897400227138    -0.663066516305     4.898118607632
H      2.115321215890     0.539562069077     3.559574242631
H      0.590638091337     0.534269616505     4.532381253002
N      0.522840140937     0.679172975414    -3.631766884014
C      1.077398175046     1.802611748424    -4.173292982977
C      1.581595209424     1.763558785688    -5.459448092864
C      1.527419003833     0.603322300723    -6.208507734387
C      0.958570017588    -0.514495511570    -5.653743832430
C      0.446507236351    -0.446010119409    -4.339082371311
H      1.129662619879     2.718293984472    -3.597000690658
H      2.020591067952     2.652596057239    -5.881199665964
H      1.924478205241     0.577776817470    -7.219720290916
H      0.875264392278    -1.444425801495    -6.177906993601
O     -0.107810891801    -1.484685869939    -3.806186312028
H      1.181557619980    -2.198540802311     1.039053410434

