# STO-3G

title

0 1
C      0.288363951916     3.157907915408     0.174557917844
C      1.176243663662     4.100882623600     0.739759813273
C      1.813615094718     5.070818805941    -0.058252296949
C      1.561207950828     5.122533136720    -1.442429953821
C      0.663179197926     4.200168193065    -2.015843274017
C      0.032699433093     3.232598572946    -1.213241111969
H     -4.497105497214    -0.889058773359     0.868750591608
H      1.374139145555     4.072796410528     1.810838952072
H      2.494412131193     5.785759363925     0.399241097257
H      2.047379321063     5.872467228103    -2.062689828850
H      0.456622832031     4.232052598137    -3.083900225264
H     -0.647607184804     2.516660642200    -1.671605442890
C     -0.375149636855     2.098531804362     1.034406347309
H     -0.479167249479     2.463062742993     2.067642258354
H     -1.399689277930     1.919950591015     0.678642483064
C      0.294384912160     0.707380260216     1.099206419922
H     -0.353618015309     0.073182578333     1.703301536322
C      1.677205140520     0.512596682121     1.573618875934
O      2.115516956933    -0.668465574201     1.580969061623
O      2.458569458217     1.591564025410     2.018043004022
C      3.793326704412     1.271215192600     2.433021247802
H      4.310400036676     2.200879226822     2.754845496717
H      3.781686221791     0.564924784723     3.294068583430
H      4.372928280063     0.824292973748     1.593512775195
Pd     0.222005656946    -0.246373853908    -0.739917663324
C     -1.659148607466    -1.891473320238     0.820439158668
O     -0.563062501279    -2.548303415117     1.243930679625
O     -1.628315964931    -1.038817729503    -0.102016037430
C     -2.945354793480    -2.178901301401     1.603698048362
H     -2.646416457689    -2.405678627980     2.632305020784
C     -3.725552634264    -3.346764525315     1.041714969938
H     -4.633548038317    -3.512294360280     1.658082481098
H     -4.038140065678    -3.121881947489     0.000832092911
H     -3.105105398301    -4.266656211780     1.054514429827
N     -3.789397248466    -0.990521530747     1.584757891403
C     -3.382829709335     0.109830964921     2.282827168759
O     -2.333381293360     0.153260464162     2.962972327438
C     -4.257642238837     1.294244524771     2.189057762597
H     -5.254978185429     1.005066733896     2.561537500069
H     -3.829608629738     2.100275236108     2.810035833260
H     -4.310906554968     1.602840680608     1.130667533267
N      1.905015929290     0.494985096994    -1.603998620794
C      2.867470479580     1.453231118239    -1.462636602304
C      3.803063550863     1.630646613855    -2.464344296679
C      3.769736540610     0.862078636968    -3.611909089825
C      2.782445806348    -0.080822064576    -3.747413473574
C      1.835194263094    -0.238543557910    -2.711999323016
H      2.905592894075     2.064561155070    -0.570587414388
H      4.558775539549     2.389064880337    -2.346633329773
H      4.504607323747     1.010177388626    -4.398446358515
H      2.682823255883    -0.694206294365    -4.619215726305
O      0.864064529684    -1.082647675753    -2.848924694849
H      0.259600974053    -2.227114596404     0.768470649976

