# STO-3G

title

0 1
C     -0.302313782664     2.481005763431    -0.244805232559
C      0.552393046536     3.234498040795    -1.071261599631
C      0.018495128536     4.309222840694    -1.814635569995
C     -1.350814807602     4.622820067514    -1.726771204063
C     -2.191767813502     3.853189340068    -0.899194708267
C     -1.673823115864     2.773149236444    -0.154387072042
H     -0.096933325579    -3.344894908241     0.818312446597
H      1.612846486259     3.001456903951    -1.144537652206
H      0.676943819569     4.894096367167    -2.453863419326
H     -1.758509479421     5.453762686808    -2.297741347639
H     -3.253148583810     4.083327431909    -0.834359125661
H     -2.328558457417     2.152103633531     0.448306476217
C      0.195847896989     1.794331682776     2.681398085776
H     -0.589486213463     2.542132668717     2.715942155955
H      0.056438175037     0.921670097003     3.314035964347
C      1.501414048445     2.107121635502     2.211281767850
H      2.310590679252     1.417846044161     2.415388364840
C      1.934250555755     3.463805853410     1.832131997936
O      3.111168174506     3.632063452753     1.421518204525
O      1.031441557476     4.535830188906     1.937341972378
C      1.498493667202     5.800281856777     1.447879410070
H      0.697467790021     6.560415001051     1.571864936195
H      2.394281571877     6.139710455485     2.015714332536
H      1.747276675562     5.736532843860     0.364349780426
Pd     0.373405156681     0.893947312523     0.740566651029
C      0.556011420281    -1.862393045754     1.789043701826
O      1.409506655466    -0.931626248393     1.899874985863
O      0.804481515209    -2.928719188519     0.999961820385
C     -0.868386658094    -1.839197080373     2.369325077446
H     -1.094776195743    -0.810136235450     2.671759326901
C     -1.028430086857    -2.763284550276     3.553804731944
H     -2.068839988593    -2.695648925719     3.933032434619
H     -0.841466599051    -3.810264672467     3.233203559230
H     -0.320761046526    -2.486733540794     4.361972051907
N     -1.736942283913    -2.358220475112     1.290229252368
C     -2.012608827776    -1.473070708873     0.339914053138
O     -1.586936918236    -0.245737657492     0.218722803246
C     -2.906222852694    -1.956299594254    -0.726363401978
H     -3.199841985627    -3.001357431205    -0.514914886530
H     -3.792903128424    -1.302963321580    -0.744507165772
H     -2.356033098187    -1.901824521762    -1.680882730313
N      1.169928070856     0.041264460458    -1.126251439243
C      0.438278476637     0.171338991732    -2.278079737454
C      1.014287077074    -0.129908667332    -3.497142255609
C      2.317694236026    -0.574548212214    -3.564156013549
C      3.015453399696    -0.720909946624    -2.393762087187
C      2.381443430816    -0.415999552396    -1.171982406536
H     -0.585186284959     0.525368130839    -2.236079279940
H      0.436415928477    -0.013108579840    -4.398772551461
H      2.776327358721    -0.814144729460    -4.519698310169
H      4.021875168462    -1.087917160074    -2.368650114448
O      3.128579340634    -0.645501330112    -0.094282490266
H      2.600278481819    -0.711894905102     0.758521617097

