# STO-3G

title

0 1
C      4.265908794795    -0.743673901962    -1.546487667481
C      4.631286858573    -0.495381566328    -2.885096496990
C      5.610849487499    -1.298455845843    -3.502681535786
C      6.223670744462    -2.344671114689    -2.783375899133
C      5.858978205358    -2.588027694921    -1.443725233722
C      4.878714001071    -1.787068527594    -0.823895968814
H      3.514318221271    -0.121280035554    -1.069181918052
H      4.157351154910     0.321146841201    -3.424894492618
H      5.897867080017    -1.106393710987    -4.534388302238
H      6.981940992200    -2.961621221356    -3.260847597271
H      6.335669236838    -3.391539260619    -0.886660762203
H      4.596855941180    -1.967018107164     0.211418059517
C      1.126297291287    -2.291205176790    -1.318500014994
H      0.324946450242    -2.811751395698    -0.804161336647
H      2.114867697733    -2.391258110877    -0.886901513731
C      0.954502473544    -1.638580235921    -2.520792757622
H      1.812208485014    -1.207776580765    -3.019405173837
C     -0.296960490732    -1.633452835833    -3.295288423465
O     -1.383150442318    -1.935552560765    -2.728660528427
O     -0.267129354576    -1.178210427807    -4.624298480650
C     -1.524657100944    -1.165705777382    -5.313261177350
H     -1.371975609733    -0.788934480692    -6.347342439162
H     -1.951962859492    -2.192111668312    -5.375073844415
H     -2.249089096322    -0.492292217325    -4.802932299976
Pd     0.882366888139    -0.081753543737    -0.614671448248
C      1.149758860492    -0.490874691496     2.207681101211
O      1.433096196197    -1.132937287764     1.051706094715
O      1.237252599196    -1.005590683249     3.336250686182
C      0.697195240362     1.001593820900     2.006054117783
H      1.072265673913     1.573417381420     2.864017291020
C     -0.806740509668     1.137690282933     1.955719354502
H     -1.077599842096     2.201606326844     1.794325045672
H     -1.212971128773     0.534335099825     1.119241121656
H     -1.252992769146     0.788053827861     2.910312822291
N      1.219439327947     1.430566850824     0.697318020064
C      2.156962179962     2.318531047048     0.459378874709
O      2.786124188819     2.473051350614    -0.670066704672
C      2.572457361987     3.251127421604     1.525965460655
H      3.297321280818     3.975922841506     1.110351482179
H      1.678301419986     3.789422156550     1.883025472238
H      3.059668669296     2.677618577490     2.333464609858
N      0.089690238326     1.108972717741    -2.095033028137
C     -1.271053318573     1.224653503798    -2.182094909414
C     -1.835384343255     1.936765125391    -3.220179505415
C     -1.040418212873     2.534011759068    -4.174951397658
C      0.320062556334     2.430962381121    -4.051228804672
C      0.871725596567     1.718489023170    -2.963231821826
H     -1.902950819131     0.733839858814    -1.451214825690
H     -2.908076754418     2.011271098179    -3.288776856737
H     -1.482339132445     3.086109231918    -4.999946972732
H      0.994127887028     2.891667318421    -4.744552265150
O      2.162868223319     1.714935201174    -2.857602784067
H      2.533357483358     1.990766132377    -1.672872727045

