# STO-3G

title

0 1
C     -0.177569925636     2.687468369865     0.975135858775
C      0.552226795490     3.750143549798     1.561551643514
C      0.317908314136     5.082525386769     1.175119934719
C     -0.654652314956     5.380341140851     0.201396513465
C     -1.394190036604     4.333031084769    -0.383148700019
C     -1.162087722568     3.002870182256     0.004161665158
H     -3.472319612127     0.628468166987     0.385562709610
H      1.281357062757     3.538003202795     2.339125018005
H      0.883395522130     5.886110261427     1.641354289839
H     -0.837636043361     6.411184042172    -0.092419786018
H     -2.145419703080     4.552604587149    -1.138355326176
H     -1.720036812869     2.195852390802    -0.466887651925
C      0.008865637238     1.274506838050     1.388011094645
H     -0.914693081643     0.709478897894     1.496256272742
H      0.372487429031     0.580596824303    -0.726834615543
C      1.149225153089     0.590542314852     1.679607762781
H      1.063498547071    -0.426796548558     2.035322274035
C      2.527934031399     1.053358771033     1.457138930092
O      3.468441028742     0.413163204094     1.998853126353
O      2.788990504139     1.941557546018     0.395364124036
C      4.166274172091     2.279927954325     0.185750786345
H      4.243783619015     2.994761836746    -0.660637068306
H      4.594779716131     2.764526832713     1.091964806745
H      4.761857608460     1.373690284826    -0.066226393871
Pd     0.018924374732    -0.090307286741    -2.031813916214
C     -1.757929871176    -1.274880521995    -0.214459804821
O     -0.692342082300    -1.923561285621     0.058156466220
O     -1.880699824458    -0.397778307749    -1.195596482428
C     -2.980270822803    -1.400165242746     0.716142792938
H     -2.693945591582    -1.970648506986     1.602493966004
C     -4.171393167950    -2.050358923041     0.047842670258
H     -5.000177763146    -2.133088239075     0.781331734340
H     -4.510840244254    -1.419718976441    -0.799257665265
H     -3.903653267501    -3.063424476972    -0.315712299698
N     -3.361839775887    -0.048563237304     1.132536888283
C     -3.328775283164     0.332156943401     2.440838798659
O     -3.012872208782    -0.411023592181     3.397093491195
C     -3.694792826316     1.740999955576     2.694333136166
H     -4.714738420378     1.902318510425     2.309269815863
H     -3.652713744354     1.922607348109     3.782111226989
H     -2.967811294485     2.387919751953     2.173188826969
N      2.046572775365    -0.344592370061    -2.184668465423
C      2.893214837905     0.322943028684    -3.028937452110
C      4.247087886258     0.067974759468    -2.991597735966
C      4.762856453125    -0.850591730049    -2.103654524988
C      3.897811194313    -1.495020453060    -1.260385751097
C      2.518339912182    -1.210941427554    -1.318517909097
H      2.496051838051     1.045291175613    -3.732673706036
H      4.906910527050     0.594220140419    -3.662551820592
H      5.830659247212    -1.050331435617    -2.064322286877
H      4.241695187309    -2.195827459481    -0.523266398613
O      1.808331566198    -1.868394750667    -0.431933701282
H      0.768601506133    -1.797751357805    -0.345668092974

