# STO-3G

title

0 1
C      2.414741720370     1.890962675494     0.816259807433
C      3.007156849094     1.201904110035     1.906290567083
C      4.393701980136     0.980843832523     1.934789941426
C      5.216499479809     1.429997641092     0.881196070304
C      4.636497395764     2.097127308689    -0.214468177330
C      3.249378734065     2.319042314132    -0.244987431930
H     -1.716190812786    -0.940740390461     2.087957854955
H      2.394461312082     0.808196761471     2.713085346189
H      4.830567736110     0.444615013163     2.773953387773
H      6.288829709447     1.250697072934     0.908625100755
H      5.258180886815     2.434930630553    -1.040530755113
H      2.804327767178     2.829469736232    -1.098841689398
C      0.967603040396     2.171185150972     0.729154996645
H      0.642433082768     2.523351317975    -0.254287779424
H     -0.515988540500     1.490454829728    -1.175807752013
C      0.058099605245     2.048703530715     1.730037322247
H      0.381405855825     1.739097445154     2.712333322340
C     -1.390481397883     2.265241421514     1.595443789282
O     -1.908104007768     2.433693745014     0.448187255491
O     -2.189538849817     2.208665656119     2.751141390617
C     -3.606903426192     2.251655224848     2.542328058855
H     -4.122904356572     2.198238267247     3.525297789619
H     -3.906184293434     3.201553419736     2.044693564621
H     -3.939523307627     1.382597227961     1.930492517944
Pd    -1.854015936370     0.935377519999    -1.559427626003
C     -0.414966875842    -0.940737761332    -0.031476030434
O      0.370372396631    -0.872138925641    -1.034456928127
O     -1.628375646382    -0.423918940952     0.025972340030
C      0.071433798956    -1.617322251908     1.261408877749
H      1.109055341287    -1.315693460063     1.432684824681
C      0.003434564362    -3.127464205758     1.188889295672
H      0.420235964810    -3.556468602489     2.123764886214
H     -1.054783450361    -3.444384125574     1.093377846175
H      0.592550725156    -3.498694805621     0.324993752606
N     -0.767441993913    -1.170530462624     2.370968093525
C     -0.240510378918    -0.766523461210     3.551804392888
O      0.989138049238    -0.731145102787     3.812378908387
C     -1.198933526476    -0.332353767381     4.591714760549
H     -1.030980508680    -0.964068590929     5.479169991555
H     -0.978736893617     0.722753142220     4.822789959139
H     -2.238061291880    -0.436912239725     4.235073476468
N     -1.301317985676     1.773100855925    -3.347664133949
C     -1.985032490923     2.735887216675    -4.040135256664
C     -1.496678276532     3.194012440307    -5.243878526206
C     -0.320748318838     2.695174565012    -5.759398906428
C      0.349205974080     1.738437125271    -5.043233429745
C     -0.169666284147     1.290441719353    -3.810520258084
H     -2.912906622364     3.131646950384    -3.643205294117
H     -2.040906716781     3.951344437823    -5.785488356571
H      0.068772476087     3.055116140568    -6.708373937261
H      1.275854881791     1.320502818499    -5.387620298086
O      0.586829846048     0.396019259929    -3.222338361079
H      0.370412387576    -0.073641766538    -2.302882770535

