# STO-3G

title

0 1
C      2.613786042150    -0.986955322806    -0.177468767082
C      2.340500387442    -2.333100476173    -0.536212086279
C      3.133906780942    -3.007897592029    -1.478912771391
C      4.219923603882    -2.354622146441    -2.099048503308
C      4.499181723551    -1.018611919419    -1.764720074068
C      3.701847614303    -0.340236702984    -0.813678555964
H      1.905875683767     0.117358025461    -2.139033438755
H      1.483612575423    -2.844347693806    -0.103079355314
H      2.895129923725    -4.035922672088    -1.739483912530
H      4.830745859697    -2.877345349636    -2.830731328758
H      5.336002134459    -0.501486284414    -2.229125174089
H      3.963837679614     0.678722209077    -0.541056469880
C      1.858934302625     1.279430369441     0.786724077966
H      2.797277249788     1.623432879667     1.233435662487
H      1.016964124515     1.756748515062     1.293155324264
C      1.688925942982    -0.265295732473     0.839023567173
H      0.681781541672    -0.457575357768     0.458597419666
C      1.696407219657    -0.863042427759     2.221252237952
O      2.424188934252    -0.343745624356     3.111222565250
O      0.692995314253    -1.790050093997     2.559679178264
C      0.772244537503    -2.343735225967     3.879788354468
H     -0.046440130761    -3.082617761561     4.017949449929
H      1.741345327467    -2.872705505795     4.027365464139
H      0.662732450592    -1.548432973746     4.651384723546
Pd    -1.045101307001    -0.617886493606    -1.150034306302
C     -1.997298565978    -3.050699399893    -0.000627979837
O     -1.035423654003    -2.575276102825    -0.832203130198
O     -2.133243287610    -4.255847525805     0.273850229404
C     -2.924713314202    -1.932369670154     0.565924267869
H     -3.177806678425    -2.223271547856     1.593739653096
C     -4.206310191610    -1.816268152846    -0.229260756331
H     -4.850571733079    -1.030029930841     0.214651586638
H     -3.969642560980    -1.534867112602    -1.276153603455
H     -4.751556897295    -2.783413886531    -0.221641582308
N     -2.222213104438    -0.636566200143     0.467163512441
C     -2.003129950846     0.282113014129     1.428587505610
O     -1.284242200727     1.316712892830     1.285335330715
C     -2.667533457266     0.083807177098     2.739154511384
H     -3.753966830058    -0.004901363729     2.571918905913
H     -2.241374972207    -0.820225865391     3.205717116461
H     -2.458193172594     0.959343904584     3.380709827061
N     -0.769038299210     1.396559833137    -1.581907678938
C     -1.448369356178     2.539699398518    -1.262037721499
C     -0.870050322137     3.771649111134    -1.528633079658
C      0.370232390713     3.853425605397    -2.132793543078
C      1.029069780160     2.684471973024    -2.428012602780
C      0.389189663942     1.463422358642    -2.129242243527
H     -2.431489616541     2.480123572083    -0.809389164306
H     -1.411688062045     4.670056950977    -1.280862413057
H      0.809470999113     4.818230993362    -2.373176026568
H      1.966664581057     2.660610238823    -2.948077148354
O      0.976903916360     0.279690666094    -2.449930493149
H      1.841211231987     1.638912322488    -0.251382238983

