# STO-3G

title

0 1
C      0.910612741709     2.553475215936    -1.444078582617
C      2.046293173119     3.297996580498    -1.826657436757
C      2.024194377848     4.048172397273    -3.022498879322
C      0.876017119547     4.054971011351    -3.836187837822
C     -0.247645237063     3.293807654152    -3.458546373305
C     -0.232660203068     2.535330617444    -2.269667152376
H     -0.008552615430     0.478513400851     2.696927260156
H      2.952402361596     3.293837223583    -1.224720102769
H      2.903421769255     4.619520276546    -3.313615400864
H      0.859903152268     4.634391368886    -4.756362655192
H     -1.132644309549     3.274338884234    -4.091376335037
H     -1.083855325641     1.909739544558    -2.014411749120
C      1.406065723851     3.297547779031     1.520018255765
H      1.809206183229     2.909477130974     2.451498383343
H      2.111199462125     3.745798598086     0.830652919967
C      0.035612739798     3.428604628032     1.318524969099
H     -0.330661928360     3.905391846637     0.420948255068
C     -0.976543565342     3.270178909453     2.378906126389
O     -2.185679688582     3.438429264749     2.066312272125
O     -0.562450881616     3.278606201998     3.722662196542
C     -1.608121492187     3.198064713807     4.700871626374
H     -1.159542828517     3.188839499257     5.716865794135
H     -2.289877763890     4.074772417033     4.626271428597
H     -2.194562898834     2.259815176764     4.576779224105
Pd     0.886425806821     1.515587497819     0.259261169192
C      1.134093501352    -1.029417037204     1.981392593220
O      0.905349513735     0.337042610704     2.241728035524
O      2.275240502328    -1.461632489748     1.852431161145
C     -0.204609964459    -1.825829866341     1.890549587434
H     -0.535482368978    -1.982638586203     2.928812737076
C     -0.037490598613    -3.172326803779     1.225737125174
H     -1.015522515387    -3.695421874357     1.183474561308
H      0.351831092313    -3.044274976623     0.195509170138
H      0.678044252413    -3.794178223542     1.803298919748
N     -1.263110478140    -1.097776265771     1.186176837100
C     -1.932297159049    -0.108726182612     1.788919277107
O     -1.574100795472     0.407308594842     2.902532304856
C     -3.107552618316     0.418616198980     1.079450120460
H     -2.778026263560     0.839631535682     0.113320927121
H     -3.815321516109    -0.412351077304     0.922517994031
H     -3.574970960183     1.209136597048     1.695646757522
N      1.327144183764    -0.142806533642    -0.901999042249
C      2.643902868604    -0.433620633791    -1.130776890764
C      2.988183983634    -1.378278582178    -2.073244991437
C      2.019053458938    -2.045585599042    -2.786763758488
C      0.704419199699    -1.755461217755    -2.536341107565
C      0.365359564474    -0.773840816732    -1.572631198664
H      3.414814044371     0.081729454314    -0.569881554722
H      4.028957359081    -1.598925768590    -2.243248982888
H      2.291309017508    -2.791870214029    -3.528260000438
H     -0.093927436087    -2.242255963969    -3.058486691570
O     -0.890393452716    -0.580196599858    -1.372319287007
H     -1.279282190498    -1.101509428750     0.135431065033

