# STO-3G

title

0 1
C      1.108653393364     2.994614464132    -1.427508732501
C      2.478161827672     3.327984007202    -1.413080491651
C      3.009976108861     4.139435259209    -2.439152570962
C      2.181526500917     4.612255020534    -3.474309507086
C      0.816600090948     4.261681334260    -3.489189371501
C      0.277362131114     3.446727696376    -2.472794686037
H      1.530095461413     0.168201921558     1.413125343255
H      3.137261106679     2.956352662792    -0.631890971063
H      4.067830582787     4.395181776902    -2.426958341251
H      2.593600784496     5.237602545359    -4.263155556761
H      0.171122787709     4.610144509929    -4.293257038551
H     -0.769448838565     3.151522928241    -2.505426133817
C      0.950725588467     3.167647608939     1.710388494893
H      0.941803995173     2.505503783042     2.571716558034
H      1.919847287979     3.527924878765     1.384452109350
C     -0.224267657364     3.732477830038     1.210437082887
H     -0.161810758527     4.497737762407     0.451057305140
C     -1.560618479108     3.575838274590     1.815111274505
O     -2.524920023171     4.209355889100     1.313162835677
O     -1.728323231424     2.785527980781     2.966545106429
C     -3.058373182842     2.731158149046     3.501011122198
H     -3.067265686305     2.078181970381     4.399770967289
H     -3.403267130200     3.745555614017     3.805275498095
H     -3.768857506601     2.309486229942     2.754254436455
Pd     0.297593601202     1.881861908390     0.002427310034
C      2.116391547055    -1.730632961177     1.553222760809
O      2.301641356010    -0.420652795110     1.181530652334
O      2.861323606928    -2.626409418299     1.146154516172
C      0.931738328506    -1.941060591995     2.565108073560
H      1.033526074975    -1.165134916598     3.336547051083
C      0.975605303087    -3.298567080122     3.231473168801
H      0.133270622266    -3.401225311276     3.946987790865
H      0.914914934578    -4.099015529260     2.464606131381
H      1.930361940734    -3.413500383537     3.786635215929
N     -0.399828448068    -1.775945424435     1.958803175144
C     -0.908229971115    -0.570239465364     1.670381518792
O     -0.220945124724     0.493515921777     1.748266951727
C     -2.332812916320    -0.512797107945     1.310563209709
H     -2.499160771651    -1.116961046874     0.401787898049
H     -2.926458359761    -0.888463771761     2.159593424496
H     -2.604694899372     0.537906247132     1.096410411460
N      0.373234646316     0.301952456757    -1.310778052874
C      1.482060766881    -0.348153277742    -1.772239505460
C      1.343642461803    -1.357202783520    -2.702653277988
C      0.102045690430    -1.711638883331    -3.182513695307
C     -1.000123931929    -1.035527395743    -2.727504156182
C     -0.847264383391     0.012810349573    -1.784761891481
H      2.463658744803    -0.079742865870    -1.400173267849
H      2.223687353872    -1.874097656480    -3.047495085523
H     -0.000052380758    -2.506137980927    -3.916498934551
H     -1.986476868573    -1.242348805091    -3.087560970056
O     -1.896190546733     0.643633883682    -1.423292993283
H     -0.948412672438    -2.589079059808     1.716972806310

