# STO-3G

title

0 1
C      0.871832715196     2.421628995913    -0.888488645043
C      1.770831325606     3.477662369726    -1.137344982951
C      1.397821823697     4.517250780082    -2.017309109259
C      0.138409879163     4.501405178620    -2.644893150219
C     -0.748977893726     3.435525963954    -2.396863176268
C     -0.385856005420     2.388924614212    -1.524544543558
H      0.223122890062    -0.422111962836     4.019683773510
H      2.743097653468     3.515805527421    -0.651593840816
H      2.089829175465     5.337134602960    -2.198852688644
H     -0.145673945240     5.305757524041    -3.319243152349
H     -1.720248162841     3.407488240367    -2.886415682142
H     -1.065274119863     1.556964324955    -1.358536411043
C      1.968247620027     2.224443268917     2.198763365866
H      2.576497018681     3.056850429434     1.858952114762
H      2.465807890098     1.426023215950     2.737999274437
C      0.581452187330     2.283599680514     2.177582500372
H      0.005257662000     1.509088759545     2.660321804834
C     -0.201274439581     3.471476906912     1.791703436440
O      0.386368915853     4.558997752278     1.547287341682
O     -1.593668292756     3.341185141512     1.653774177442
C     -2.279442922622     4.497200963286     1.153206923633
H     -3.366016633890     4.278318740591     1.077161656424
H     -2.145992344086     5.364474675756     1.839195905137
H     -1.906053538325     4.768575392641     0.138806844220
Pd     1.397044012102     0.970797799130     0.371092349429
C      1.357979326837    -1.104187075640     2.551960170563
O      1.204921085107    -0.399176792823     3.702530584361
O      2.301128270429    -0.851689716449     1.763452739095
C      0.184429429851    -2.080780502044     2.253831535228
H     -0.143995470107    -2.530965422427     3.199316121443
C      0.540253572904    -3.177283492194     1.277960877948
H     -0.365692054254    -3.770902656398     1.035129041901
H      0.953793923400    -2.748232612291     0.344531820685
H      1.301434689311    -3.847597863115     1.727815976995
N     -0.920049487142    -1.284843320156     1.701225020061
C     -1.629582052529    -0.508519176777     2.524392985846
O     -1.339947591204    -0.312851045839     3.756441308918
C     -2.789936718165     0.175359430678     1.934492495221
H     -2.439580130785     0.817145938144     1.107385820030
H     -3.486411681453    -0.594390871008     1.561505788959
H     -3.275463938792     0.793228327592     2.712185020054
N      1.369497253179    -0.264389038543    -1.268936523015
C      2.459618208832    -0.317581757246    -2.092180378129
C      2.412440389155    -1.061254494913    -3.251202244284
C      1.272597918958    -1.751596803850    -3.596620564655
C      0.188446385793    -1.684857553692    -2.762454279439
C      0.251320412129    -0.911650563681    -1.577615680923
H      3.361535037140     0.222129796631    -1.828075550583
H      3.277255600902    -1.096781408917    -3.893101070698
H      1.233503234191    -2.335928398448    -4.512080364599
H     -0.727917427665    -2.194516630571    -2.981078069519
O     -0.812027177441    -0.898441039383    -0.855351723313
H     -0.968909897222    -1.147058680842     0.643984604624

