# STO-3G

title

0 1
C      0.723390961427     2.605308027464    -0.540761717544
C      1.596204429606     3.701686229209    -0.381105966324
C      1.424335650282     4.857494310677    -1.173654543522
C      0.388285277721     4.921909013770    -2.123675892869
C     -0.474951451803     3.820378611492    -2.285577790697
C     -0.304753883913     2.658875046368    -1.505141878856
H      2.537006365355    -0.894305097247     1.708728425455
H      2.399897855900     3.678058431326     0.351203059371
H      2.098228046069     5.701565153468    -1.041397227636
H      0.257432885178     5.813200258201    -2.732690886898
H     -1.274587513532     3.854873120009    -3.022810581915
H     -0.961369346993     1.806257926403    -1.662149128439
C      1.118238838087     1.929036804590     2.589615957870
H      1.710119200432     2.830443771285     2.472971669087
H      1.586876397090     1.097749243082     3.107261012243
C     -0.249999224979     1.899391536560     2.351662779935
H     -0.823862450260     1.030752526655     2.638266952599
C     -1.054599522911     3.076177868790     1.977984328826
O     -2.244106297931     2.900567472726     1.606809525880
O     -0.451243259053     4.345336374868     1.935342004767
C     -1.250095739319     5.398761726242     1.379497253100
H     -0.668878961987     6.345446473364     1.388896882494
H     -1.520156375392     5.171612985713     0.322861326907
H     -2.177909819093     5.551062778193     1.976217192910
Pd     0.933743276480     0.950970738714     0.543963177021
C      1.170637732000    -2.255233625332     2.098938694569
O      1.557061394520    -0.929800764535     1.779299394723
O      2.046656927384    -3.089394615727     2.339268255396
C     -0.345781695711    -2.445519312285     2.170199934504
H     -0.646175393428    -2.258648567733     3.213538159925
C     -0.741226736534    -3.859511935864     1.800172126287
H     -1.838929356165    -3.981734106683     1.909930618325
H     -0.461112072413    -4.061027431249     0.744682564879
H     -0.232579471252    -4.590764692848     2.463085224597
N     -1.092336993789    -1.538522608708     1.320158021415
C     -2.105227554981    -0.803045865191     1.822153835509
O     -2.362539023732    -0.663845434303     3.049440289265
C     -2.936867368220    -0.122666203707     0.811599423325
H     -2.299691583261     0.552161024825     0.217527136492
H     -3.396665217610    -0.893488051436     0.170036224363
H     -3.719391811547     0.463697116365     1.329015068694
N      1.634421408968     0.046228934413    -1.169484983104
C      2.703349436227     0.553240808877    -1.856371703348
C      3.092212032449    -0.013372079201    -3.050369001211
C      2.415979401699    -1.093560961527    -3.569129668232
C      1.340770009255    -1.585965639779    -2.880330156318
C      0.943309597163    -0.989358183648    -1.657708454752
H      3.254273138822     1.394814003083    -1.453510694390
H      3.939084647539     0.393013853749    -3.577942060686
H      2.726122478786    -1.543541471223    -4.508406760052
H      0.771737975976    -2.419734753549    -3.238016687800
O     -0.083799168435    -1.495688654987    -1.096747734528
H     -0.811183364611    -1.491106924096     0.313159674079

