# STO-3G

title

0 1
C      1.196135929014     3.030797662737    -0.397268084759
C      2.401215426621     3.720017495735    -0.168001554744
C      2.487863575485     5.089008127684    -0.502601769778
C      1.381262252244     5.758597823093    -1.058044248607
C      0.179915424319     5.057845692449    -1.281172427441
C      0.081400876969     3.689401143719    -0.953249522751
H      0.787760512446    -2.712887547205     0.012386279681
H      3.265559331334     3.215586854242     0.258119184916
H      3.418762123801     5.623291078498    -0.325500935722
H      1.453340646582     6.813112950372    -1.312519687445
H     -0.682324706200     5.568978635438    -1.704078831176
H     -0.855159789206     3.161711750933    -1.121693516032
C      1.520136177168     1.036317612423     2.142478677278
H      2.297455230354     1.758091031378     2.368333408395
H      1.809524605011    -0.012749593023     2.188941066940
C      0.170817461498     1.383881917300     2.066423474736
H     -0.575534639947     0.602317040875     1.998771937421
C     -0.359397981080     2.737163749123     2.300497543577
O     -1.559746186096     2.964732879242     2.000960283805
O      0.518492698117     3.770662637261     2.668464552146
C     -0.038457885911     5.092366125839     2.679284566601
H      0.745601927353     5.819751806310     2.980802373465
H     -0.397913135972     5.377342612284     1.664390395362
H     -0.879761942451     5.163839107227     3.405503728159
Pd     1.074610759295     1.084003013664    -0.043819989237
C     -0.186126309263    -3.742640714643     1.491483223212
O      0.573142795128    -3.640021155514     0.353513376261
O     -0.483401796876    -4.842007820802     1.970887034548
C     -0.552883838781    -2.355235590748     2.124239175424
H      0.410158045547    -1.898276287714     2.402280001036
C     -1.388744102148    -2.474088401876     3.379503331351
H     -1.667966074488    -1.466910959080     3.751734764703
H     -2.310597490004    -3.056017883854     3.168006006158
H     -0.815698791394    -3.005965586081     4.166983409199
N     -1.179855632033    -1.447108020053     1.148772483908
C     -2.503106378443    -1.184715315115     0.911003382929
O     -3.482158577693    -1.555342393944     1.590296366083
C     -2.739630922842    -0.331236689922    -0.278695393053
H     -2.255200627004     0.646054506668    -0.117030478393
H     -2.342677275181    -0.850981084043    -1.168616007260
H     -3.830553826521    -0.185627091561    -0.393401180467
N      1.194946830836     0.470213372567    -2.019688689472
C      1.316299121034     0.956002954377    -3.290123254887
C      1.353257781100     0.072517838985    -4.352844012971
C      1.276378803749    -1.292895571421    -4.142221465089
C      1.159949403468    -1.752928530655    -2.854366181596
C      1.128440740312    -0.822238402280    -1.798917656132
H      1.375858452697     2.025140630369    -3.459854595078
H      1.447065375876     0.455223627485    -5.356156197542
H      1.308446292464    -1.987170317315    -4.977915636972
H      1.100833893951    -2.797707573044    -2.611781626702
O      1.017461424145    -1.239655382435    -0.563376857021
H     -0.520796263819    -1.159525075485     0.423993265162

