# STO-3G

title

0 1
C      0.069913934672     2.732349075565    -1.098775189480
C      0.936017941252     3.710321689127    -1.622772144789
C      0.417284922883     4.678551097367    -2.509816857510
C     -0.944939714342     4.658635062299    -2.866169015193
C     -1.793467218538     3.666042536449    -2.337237938405
C     -1.292556744788     2.690299488836    -1.448802323052
H      1.520374401577    -0.873263093562     2.013432212519
H      1.989285901836     3.734385658751    -1.350046360174
H      1.078960068066     5.441524340250    -2.915036262972
H     -1.340963768924     5.407078095153    -3.548703239037
H     -2.846047080970     3.643258523295    -2.612055448806
H     -1.939579220843     1.911545496310    -1.052469829959
C     -0.348070146836     1.875694651336     1.895614167245
H     -1.260688911935     2.373085380779     1.587749181585
H     -0.458654912752     0.893353720756     2.339863691827
C      0.888727373221     2.517138269403     1.967904728635
H      1.723535079859     1.992454324122     2.416557509227
C      1.093204332125     3.955654924605     1.729801513888
O      2.270381570100     4.396261245754     1.668196112268
O     -0.013878559807     4.779387224905     1.461744640417
C      0.282073529410     6.138635891741     1.113863054198
H     -0.667503343685     6.682022997477     0.919600886130
H      0.817009808453     6.653014551623     1.943995983087
H      0.899409751428     6.183908134097     0.188432740728
Pd     0.771772285951     1.283016788084     0.052148805075
C      0.347658328094    -1.566891243718     3.531775153158
O      1.305353881515    -0.750736418109     2.989376825707
O      0.139014001377    -1.602234822583     4.750646683992
C     -0.517085242338    -2.396758907049     2.520724336211
H     -1.385653546101    -2.739220086736     3.090728715119
C      0.213308014346    -3.620182264956     2.008736084023
H     -0.431170774009    -4.171188113657     1.292835806083
H      1.150011668369    -3.318369870695     1.494592693736
H      0.470970380521    -4.290580254232     2.855195571443
N     -0.905039998929    -1.582919749666     1.367236332716
C     -2.048042256904    -0.893773863203     1.121240504661
O     -2.149742616178    -0.054219750843     0.189891223796
C     -3.209253778165    -1.139987536580     2.000754107845
H     -3.480249932431    -2.207263457754     1.930035253930
H     -2.938586009875    -0.854699378757     3.032064322588
H     -4.055761122294    -0.518133255099     1.654198746917
N      1.490929176041     0.131557257424    -1.509220877801
C      1.619826382750     0.208840003234    -2.866032798060
C      2.202357964658    -0.839963104864    -3.552784331513
C      2.651466321763    -1.961474585917    -2.881444563384
C      2.499700286729    -2.017544839889    -1.518154685859
C      1.901533085805    -0.927626686474    -0.850935727184
H      1.270778101353     1.087785343362    -3.396080345978
H      2.307082485335    -0.775930773119    -4.623331521545
H      3.112871323241    -2.783458167094    -3.422202160159
H      2.827062664520    -2.853435519018    -0.934945572284
O      1.734471611659    -0.991218027930     0.441016483218
H     -0.142527074337    -1.361938093024     0.720138927441

