# STO-3G

title

0 1
C      1.418893262795     2.918114217901    -0.724309996969
C      2.423208482432     3.242024324087     0.215377103577
C      3.541517956960     4.009148837901    -0.181473128619
C      3.657546279985     4.466082602076    -1.506347351475
C      2.646404350332     4.157056483225    -2.438555215018
C      1.532007705991     3.385399488746    -2.053305164765
H      2.484460369532     0.751350877495     0.594345926787
H      2.341270938093     2.929927533219     1.254621807738
H      4.310111384036     4.251626253767     0.549812207737
H      4.516568610523     5.060855060810    -1.807438196587
H      2.720571027878     4.518132928164    -3.462472835939
H      0.757329661551     3.158798756739    -2.782654686703
C     -0.707580118630     2.807530330116     1.614191454840
H     -1.334128102750     2.082389467962     2.130625251276
H      0.241117105621     3.022252053215     2.096638549260
C     -1.157606677641     3.601344213223     0.556246774915
H     -0.544995694506     4.413591973833     0.195603627134
C     -2.532391198153     3.577862448709     0.024967699330
O     -2.803641965038     4.303953801144    -0.966591546742
O     -3.456185801843     2.647214265257     0.524981417901
C     -4.727241905728     2.599160428943    -0.136554300067
H     -5.362734801795     1.828393620491     0.350777450697
H     -5.249634508596     3.579705879256    -0.064199581310
H     -4.604664071474     2.318643652407    -1.207120685466
Pd    -0.125384633683     1.751274643612    -0.256510949081
C      1.864964045489    -1.081389717055     1.006965716989
O      1.956791398739     0.271636761860     1.272994362160
O      2.555627130697    -1.639120479204     0.142387410998
C      0.850184873523    -1.755498400673     1.966719901032
H      1.437922341452    -2.036425886024     2.851360472803
C      0.275775818806    -3.032976683747     1.394432941220
H     -0.412092500013    -3.496659022400     2.131734251615
H     -0.290681168092    -2.817102400098     0.468187912967
H      1.089830273462    -3.750651310969     1.159239465700
N     -0.253206974415    -0.870466450850     2.311987182555
C     -0.506144203784    -0.211933994185     3.471083220423
O     -1.420452910343     0.641875864090     3.590251427584
C      0.338827279185    -0.514064571509     4.647519949533
H      0.238997045343    -1.586574210875     4.884406856661
H      1.378594754184    -0.232443634882     4.409185198311
H     -0.019174359082     0.088591444947     5.503033535430
N      0.303228813677     0.176193701889    -1.547751054695
C      1.137647911058    -0.218036224563    -2.552465814131
C      0.835200230592    -1.356160986942    -3.277623113246
C     -0.287092174943    -2.107605397054    -2.984162735059
C     -1.102606595320    -1.703937490915    -1.955673012188
C     -0.765757009665    -0.537138483817    -1.237247038030
H      2.021832475175     0.364716526399    -2.783853540578
H      1.496896000531    -1.664550550805    -4.069889933086
H     -0.516908160484    -3.003662461568    -3.554235668009
H     -1.987696949920    -2.237088800710    -1.675406440239
O     -1.509650730968    -0.151203805763    -0.239614818099
H     -0.858958117464    -0.594552649703     1.524879532297

