# STO-3G

title

0 1
C      1.559534662586     3.314794325751    -1.198442500203
C      2.953674407701     3.468944436823    -1.080659630573
C      3.589905361373     4.532124872471    -1.757563806349
C      2.839572371123     5.428983773145    -2.542019676490
C      1.444697903306     5.264365653331    -2.650356269280
C      0.796962773316     4.206153136299    -1.978489262151
H      1.182851771735    -0.757698118619     1.004745902334
H      3.544256589559     2.777682787315    -0.483817770671
H      4.667357074265     4.653613207546    -1.667892705328
H      3.334187716279     6.247961602927    -3.058750355612
H      0.856437265131     5.957362845475    -3.248499025702
H     -0.282083717648     4.092325843564    -2.063548419142
C      0.737976308786     2.275405505283     1.813273865442
H      0.375218073249     1.325825899974     2.188002064436
H      1.752308084426     2.536260814920     2.096626463136
C     -0.110688977153     3.220032410130     1.241467648651
H      0.248346642719     4.221930330419     1.067989699807
C     -1.531458376293     2.995546584687     0.942242981963
O     -2.255967661818     4.010099794839     0.768178118631
O     -1.818744852641     1.805013952037     0.253159763528
C     -3.201930243353     1.586914082483    -0.052898385670
H     -3.313797267300     0.606821343707    -0.564240194333
H     -3.809907010899     1.561471035890     0.880517228824
H     -3.591463702886     2.380397652309    -0.730245783842
Pd     0.697065432865     1.744314993797    -0.351425315727
C      1.459505949929    -1.698696309216     2.776708248470
O      1.854315197880    -0.882516911369     1.750827803448
O      2.250194218493    -2.080670744346     3.649162175227
C     -0.063276828947    -2.065437697731     2.825595029657
H     -0.232245768764    -2.436781906798     3.840572994207
C     -0.423915831702    -3.185887245422     1.873461102098
H     -1.510351581980    -3.401289576755     1.941123126728
H     -0.176769700484    -2.897390101529     0.832916139948
H      0.145060623658    -4.102856801824     2.133379724759
N     -0.909209369306    -0.907460827727     2.522370064735
C     -1.483135190013    -0.024926949917     3.387833290969
O     -2.002732774974     1.059069695650     3.021886528089
C     -1.479055416397    -0.360051394735     4.828502943536
H     -2.024952791579    -1.308005199498     4.969870559956
H     -0.432218497209    -0.429499077134     5.171255839100
H     -1.992764065666     0.448644492366     5.381299387064
N      0.783775894565     0.502086853535    -2.005864989154
C      1.021720780236     0.569213520954    -3.347684484837
C      0.740165865145    -0.526797245108    -4.141888722039
C      0.229196524538    -1.686384082234    -3.589492780095
C      0.001961025918    -1.727587958219    -2.235966833699
C      0.303252098672    -0.588567588953    -1.457888810206
H      1.423489606368     1.477127747566    -3.783092876423
H      0.928468829807    -0.473067756204    -5.201424437086
H      0.012391035649    -2.548638147286    -4.214287688573
H     -0.387295239572    -2.593415887438    -1.744087506025
O      0.094648054914    -0.618773177734    -0.165372420635
H     -0.962543473665    -0.633897406738     1.535215910136

