# STO-3G

title

0 1
C      0.760562964839     2.592539139169    -0.437541501477
C      1.714750841332     3.630187199958    -0.407383200031
C      1.605098816252     4.707361013920    -1.313870193728
C      0.551226116014     4.749132242966    -2.245726794924
C     -0.391037034417     3.702189778615    -2.276487052924
C     -0.287735451161     2.618577196325    -1.380096524137
H      0.160599952343    -0.679299047703     2.911784294692
H      2.538184372164     3.617815192761     0.302907699269
H      2.342983561118     5.506637693289    -1.286067810732
H      0.470242815288     5.579156862497    -2.943669561531
H     -1.201002058949     3.715207671245    -3.003101789647
H     -0.995228124191     1.795055643341    -1.435882954055
C      1.043749384647     2.305314411212     2.737391138825
H      1.614255674262     3.196637679622     2.500873244081
H      1.541428910968     1.548616454345     3.336958936032
C     -0.324004698799     2.222536901118     2.497562169640
H     -0.888140495500     1.384550753762     2.883698674690
C     -1.144816941587     3.321766139370     1.962364817606
O     -2.349195774622     3.091646771128     1.676773971800
O     -0.559218347890     4.577814475263     1.727117675612
C     -1.378727123943     5.530901111588     1.037064194204
H     -0.806374494704     6.472326333951     0.894510787251
H     -1.665059749904     5.148169250742     0.031099894330
H     -2.296999164685     5.763130187004     1.622428992911
Pd     0.875920673783     1.076619878310     0.847866605134
C      1.258558586661    -1.904880743798     1.742133763001
O      1.057000284482    -0.678314621028     2.406108216664
O      2.386177537566    -2.276408072171     1.434909843002
C     -0.097116019812    -2.636942908821     1.491149425663
H     -0.395851890097    -3.066121944931     2.459671966359
C      0.018892242245    -3.752843158428     0.479350107826
H     -0.969120266348    -4.239515412756     0.341778277448
H      0.364285177887    -3.351225485263    -0.494839600859
H      0.747911296961    -4.511590994177     0.832940429793
N     -1.160820268284    -1.730262138302     1.049228960160
C     -1.796898767658    -0.938141898667     1.916507117334
O     -1.417070789633    -0.752018709612     3.126981392741
C     -2.962303692336    -0.205018244782     1.398488334229
H     -2.634876700565     0.449000834045     0.570484461672
H     -3.700624738804    -0.942581987944     1.041735307267
H     -3.394893837392     0.409152121813     2.210048058789
N      1.438484205078    -0.101016045048    -0.755121324883
C      2.767114778665    -0.168006134852    -1.072190389544
C      3.169895295373    -0.799647436586    -2.228874722106
C      2.248276562962    -1.379165081991    -3.070352734398
C      0.922574827480    -1.316271878068    -2.733075896986
C      0.523258149757    -0.655179554415    -1.545546672578
H      3.501391463801     0.280102808801    -0.413134195247
H      4.219549641919    -0.846282855931    -2.466895915962
H      2.566411074047    -1.880373950245    -3.980510547502
H      0.159639153613    -1.748664965006    -3.347677131392
O     -0.738602784950    -0.663058393215    -1.289977594514
H     -1.172836988695    -1.435806836906     0.032628907498

