# STO-3G

title

0 1
C      1.058716633849     2.642678136714    -1.097295131914
C      2.095607699162     2.576266341388    -0.144630047464
C      3.306878779335     3.261243368746    -0.383334210052
C      3.487429091006     4.009428107633    -1.562071771995
C      2.446723987423     4.074380944546    -2.508838030082
C      1.232805777428     3.392704762141    -2.279780795255
H      1.112398096095    -0.199157224546     1.035255278675
H      1.981820844893     2.005197312390     0.772856549840
H      4.103499968084     3.201816568671     0.355095397506
H      4.423678387287     4.533292484566    -1.739944851577
H      2.575151881520     4.652388705711    -3.421972121888
H      0.438350736495     3.462421829151    -3.019552774770
C     -1.264959949048     3.721321988383     0.025009523565
H     -0.372784543317     4.330850895763     0.088887020047
H     -1.961855683234     3.955306996426    -0.774731418870
C     -1.623268677666     2.829787314774     1.022023239168
H     -2.583648397949     2.341910874799     0.964024640617
C     -0.909736104007     2.637836272949     2.295177045364
O     -1.430720407442     1.875376135147     3.152316215623
O      0.224327700010     3.414211347785     2.584464410602
C      0.900417029981     3.098829392019     3.809933185852
H      1.777845608063     3.769056079480     3.929954225186
H      0.228380924524     3.240548411577     4.686016707616
H      1.273947084946     2.049704223467     3.799207471548
Pd    -0.649104020692     1.644155800711    -0.753123370609
C      0.418463886259    -0.645391709008     2.924096068038
O      1.122809492273     0.091854411137     2.020945491548
O      0.649618415933    -0.602508695618     4.140794728684
C     -0.745148940876    -1.544105557608     2.356179748216
H     -1.509859460592    -1.570914638249     3.138218693138
C     -0.278107210168    -2.958251053720     2.091559852499
H     -1.118001772921    -3.563187355265     1.692530431779
H      0.546618592126    -2.946949344454     1.346697113440
H      0.090332202512    -3.419610288711     3.031583527805
N     -1.247969889774    -0.995744340113     1.095139194762
C     -2.384617492673    -0.365258423803     0.798641220455
O     -2.499766081599     0.404030435783    -0.218041338229
C     -3.552419021657    -0.555337189540     1.676269333892
H     -3.748090794892    -1.637786980891     1.763936206518
H     -3.322742082180    -0.105914665029     2.658970047204
H     -4.426303987288    -0.046634412350     1.230246120442
N      0.099998498084     0.243575515122    -2.072205674715
C     -0.113132109716     0.348028377938    -3.418516738746
C      0.467928549221    -0.555711060665    -4.282770771965
C      1.267544668436    -1.569298137617    -3.801724114473
C      1.461186905866    -1.662335517140    -2.449463197270
C      0.858538510572    -0.718105716040    -1.584838414082
H     -0.740283196008     1.142608079831    -3.804788849093
H      0.297968900384    -0.462985562326    -5.342455269976
H      1.731787218251    -2.280787798111    -4.479245992877
H      2.074164925599    -2.422601770423    -2.009929835569
O      1.074805013198    -0.883516218713    -0.320959179094
H     -0.508848759654    -0.919885835640     0.375195652379

