# STO-3G

title

0 1
C      0.560509340168     2.752018618988    -0.405588357949
C      1.959462100309     2.811831419035    -0.236706441262
C      2.666703647040     3.944126030030    -0.691078524547
C      1.988011605753     5.009051923979    -1.316043298089
C      0.592508049983     4.940229168966    -1.485035289961
C     -0.126279057029     3.811831059190    -1.032878919661
H      1.679261160525    -0.880402958750     0.366474993913
H      2.492930469520     1.991093895864     0.238364995520
H      3.745672292093     3.986818973453    -0.556698976157
H      2.540147922620     5.878564199032    -1.665341105921
H      0.059201500455     5.758727947270    -1.964740942053
H     -1.206705512565     3.785242133899    -1.163509522573
C     -0.156316824481     1.706930472091     2.411524600934
H      0.679431836285     2.391451377398     2.507250410226
H     -0.002603097140     0.715678855638     2.815250372440
C     -1.427992655681     2.102620160126     2.008624216178
H     -2.235532437747     1.383497411522     2.040487510560
C     -1.829586945376     3.498637291176     1.773255286518
O     -2.947908472028     3.720732711121     1.239010000214
O     -0.935333754947     4.542704712448     2.064284144667
C     -1.379591555582     5.865703923596     1.735279333507
H     -0.586159520436     6.595189918238     2.006381813773
H     -1.573019418007     5.958134545102     0.643035865150
H     -2.302426220653     6.126070902955     2.301125320687
Pd    -0.363708583319     1.111124503358     0.237318950839
C      1.776812906983    -0.960807593271     2.526928912117
O      2.040515012652    -0.480085039892     1.311729178615
O      2.250008674629    -0.473816620433     3.574362212973
C      0.745327280700    -2.144054113960     2.671958393272
H     -0.030723944933    -1.750210272494     3.339838629753
C      1.373834118550    -3.348657240765     3.340401726839
H      0.617561961593    -4.150539121669     3.471318511805
H      2.213314219558    -3.726472099591     2.720598675715
H      1.767331220227    -3.066345639131     4.339987762978
N      0.093204914684    -2.605865747641     1.446685224465
C     -0.884515309977    -1.927322911626     0.826528865118
O     -1.286997182352    -0.776530002903     1.176081394219
C     -1.561173778056    -2.624376793331    -0.285374964807
H     -0.812499033278    -2.892159824420    -1.050683526674
H     -2.048272084270    -3.526696994154     0.120547453483
H     -2.317145531811    -1.947934376402    -0.724552944700
N     -0.071268616659     0.309741688291    -1.663441876943
C     -0.710374296465     0.866522846135    -2.737340634365
C     -0.551108004015     0.327660980907    -3.996329451360
C      0.267502230638    -0.760648159687    -4.193582532025
C      0.905398533780    -1.301044020018    -3.110372752182
C      0.733577044474    -0.725438234171    -1.827157360445
H     -1.366970000234     1.715559112730    -2.594995419165
H     -1.062421494521     0.774604994864    -4.832687967517
H      0.406122525366    -1.179798792261    -5.186484239996
H      1.573501673350    -2.133239529228    -3.198282780619
O      1.385002349869    -1.305972191257    -0.874738037475
H      0.501468984112    -3.377793976735     0.937219500293

