# STO-3G

title

0 1
C      0.711717254208     2.812923711886    -0.968623280092
C      1.768863360457     3.635408230422    -1.395167349267
C      1.467278620052     4.862455829495    -2.026834195681
C      0.128993100761     5.249919733193    -2.227425718283
C     -0.916287075516     4.408958769474    -1.795529525480
C     -0.634379667573     3.180614825491    -1.161873359971
H      1.567050317402    -1.488376391857     1.255864912045
H      2.805693950705     3.342338795160    -1.249575720943
H      2.279860452638     5.507101707364    -2.355903886209
H     -0.096856707801     6.196203230819    -2.713596756221
H     -1.952999279136     4.703490022461    -1.945868614845
H     -1.436016785091     2.530890239801    -0.819487392259
C      2.209153481834     1.698123219794     1.593903287822
H      2.767997500264     2.586636328398     1.321949713523
H      2.772939185534     0.783810117881     1.766018601362
C      0.873801287364     1.754159544884     2.002304597862
H      0.431315067760     0.870163306440     2.436836670014
C      0.096896001377     2.991558407236     2.183812242543
O     -1.062366161731     2.913171177097     2.669976879314
O      0.679643320443     4.230564201400     1.866968070354
C     -0.194386277863     5.365484373251     1.924070617341
H      0.370413574234     6.277714986184     1.635620340829
H     -1.041195980056     5.245687420702     1.210620796716
H     -0.591515934324     5.509711169970     2.954302874330
Pd     1.033790855244     1.033574974792    -0.164956836151
C      0.719468170245    -1.841890084047     3.089124255410
O      1.709744884694    -1.402174925814     2.251105833978
O      0.884729001734    -1.893485027885     4.314256775238
C     -0.645997720830    -2.227550640616     2.420889469033
H     -1.382880279210    -2.224581039669     3.229644863513
C     -0.608841519826    -3.619194090964     1.825920473444
H     -1.590586132135    -3.858130365930     1.366919351738
H      0.179619105429    -3.675730233781     1.045025275982
H     -0.386618144784    -4.365854472760     2.616783754908
N     -0.999412333815    -1.294062584216     1.352174063862
C     -1.815658544483    -0.211488739588     1.355032411878
O     -1.824817676342     0.623375138553     0.411644433234
C     -2.709045477889    -0.012001133037     2.512751818559
H     -3.293265372540     0.912041455095     2.344411967789
H     -3.384974842880    -0.879662485718     2.587592329247
H     -2.095115406540     0.113604400565     3.422145969103
N      0.981863285384     0.009761133734    -1.967256292627
C      0.841398628316     0.309014496493    -3.291904737890
C      0.900362248733    -0.706745448333    -4.227468864642
C      1.093317605541    -2.017467081424    -3.835010547226
C      1.221605186861    -2.291252813458    -2.496127809594
C      1.158441040062    -1.228369144808    -1.569628483269
H      0.690437477208     1.336237828030    -3.603951330919
H      0.792453809474    -0.468253649181    -5.272664614774
H      1.140188054235    -2.815478158115    -4.571132683044
H      1.373749177834    -3.282654397404    -2.121787621712
O      1.260680203245    -1.499545389921    -0.297508228718
H     -0.411905752914    -1.356389061735     0.513089917094

