# STO-3G

title

0 1
C      0.286316837239     2.679816964538    -0.035969949905
C      1.286397478080     3.675295843590    -0.018862046877
C      0.988716267294     4.976948958685    -0.474930931064
C     -0.298752811496     5.286284215676    -0.953046002444
C     -1.286327981243     4.283208084642    -0.985718549728
C     -0.995795426854     2.977008062561    -0.538409052708
H      2.319961389245    -1.138469812160     1.561264283657
H      2.287703676073     3.460396990585     0.350009471122
H      1.763392696307     5.740985000465    -0.456216195384
H     -0.526435673974     6.289378401499    -1.305625660447
H     -2.278837987472     4.505455263743    -1.372076178652
H     -1.754380936035     2.203216803388    -0.616993240223
C     -0.434217859333     0.895490579039     2.566247501362
H     -1.299399437822     1.540605546369     2.445208034730
H     -0.633496995970    -0.165554411026     2.662738227478
C      0.828517929968     1.402594754264     2.842084135900
H      1.625443303786     0.720391127323     3.108400234517
C      1.115449916993     2.823565155074     3.098645396729
O      2.314118310637     3.182257959070     3.234659846684
O      0.063087950806     3.755496944542     3.104570896446
C      0.438330242550     5.127054889345     3.291044650526
H     -0.472543686108     5.763162330194     3.267643160681
H      0.940299121636     5.270568111564     4.274592331266
H      1.115590064567     5.466773320738     2.475482239706
Pd     0.679497795028     0.830513890134     0.581299002664
C      1.180576997885    -2.595438588887     0.907576629499
O      1.372131448656    -1.255783316409     1.328063336906
O      2.150582538023    -3.356865444645     0.886590282035
C     -0.278376849365    -2.956149650030     0.590375805974
H     -0.613964394507    -3.555147839002     1.451684660934
C     -0.372843703192    -3.811132824087    -0.656442605857
H     -1.427746723303    -4.112820214199    -0.824653477051
H     -0.019824728725    -3.235727373185    -1.537722160243
H      0.245369371922    -4.727022410331    -0.545520815423
N     -1.193588324351    -1.845025970001     0.438822057432
C     -2.127090658840    -1.592113993382     1.382034193310
O     -2.156452122503    -2.102055561557     2.533354077922
C     -3.178101379595    -0.637076773717     0.977988222095
H     -3.710093133852    -1.065158091721     0.109929017652
H     -3.877615781148    -0.506245914586     1.823412338898
H     -2.713732999375     0.324517745907     0.706944661930
N      1.275951121918     0.458179446006    -1.354792406872
C      2.483225322714     0.875602730190    -1.840568446787
C      2.780148750715     0.720451238929    -3.177213298939
C      1.870654690601     0.148085893048    -4.037961456851
C      0.661329514794    -0.258571758509    -3.539890050403
C      0.365195393047    -0.082921322900    -2.165931142359
H      3.210033993957     1.318892888020    -1.170039540167
H      3.737242796724     1.048372503049    -3.547890080009
H      2.106323436465     0.024529553841    -5.091583719198
H     -0.089966208092    -0.699173826105    -4.162801793865
O     -0.789480606436    -0.472255506676    -1.777244462534
H     -1.136752296066    -1.272474578903    -0.437046735326

