# STO-3G

title

0 1
C     -0.720572925074     2.591424992369    -2.085229071861
C     -0.187494003601     3.392146499166    -3.114643816950
C     -1.025461647694     3.797634602202    -4.175615181398
C     -2.377927589168     3.405565624240    -4.201593383061
C     -2.893233474487     2.604753170639    -3.164119521267
C     -2.068694306998     2.188577568540    -2.096065608915
H      2.081951127010     0.224608048231     1.802430508416
H      0.855922197903     3.699785388853    -3.102523906001
H     -0.620167546881     4.419384982593    -4.971551944834
H     -3.022371029843     3.721898963604    -5.018687651918
H     -3.937069974478     2.297101001010    -3.178614486603
H     -2.458462561424     1.556775344216    -1.303903177833
C      0.396394466910     3.935429368266     0.262902653736
H      1.408984790425     4.199164572902     0.560894641978
H     -0.024879450437     4.485938530045    -0.568412197746
C     -0.409165527197     3.133250645968     1.072843709979
H     -1.448392428431     2.968932190607     0.827866157684
C     -0.031876761654     2.737601149844     2.445935129784
O     -0.873157765241     2.097651280213     3.132798815671
O      1.061058630048     3.383968816596     3.051039096695
C      1.261554732926     3.115892006676     4.446347505135
H      2.158148815795     3.666407336906     4.801646404232
H      0.384553019688     3.448040577819     5.045404443703
H      1.439567683076     2.032821378944     4.624460626008
Pd     0.474433747601     1.894287145392    -0.656694643667
C      1.275906860449    -0.589857845606     3.507501154847
O      2.055887103409     0.282884017204     2.812103855791
O      1.329478472235    -0.671139038901     4.743714683721
C      0.295369952847    -1.488843703255     2.679983348867
H     -0.439585265692    -1.854194996975     3.402418902580
C      1.001883160302    -2.689850318876     2.087000199077
H      0.278473391932    -3.308662229581     1.516727029010
H      1.808340558601    -2.351592034345     1.403792458746
H      1.448998709568    -3.305784524154     2.895194709958
N     -0.336790329547    -0.758193946346     1.580909305481
C     -1.594662405379    -0.274632316882     1.451102531132
O     -1.935494929708     0.458932423763     0.483860055336
C     -2.596143727684    -0.635994638014     2.473906115672
H     -2.694062459706    -1.733672567422     2.501564368202
H     -2.257774164545    -0.224957008070     3.441958795479
H     -3.563225642280    -0.175708847961     2.201037127876
N      1.268201880735     0.387465978770    -1.853413497253
C      1.230453079284    -0.049671193295    -3.146174449790
C      2.041589506216    -1.102082668671    -3.529687816228
C      2.884667797046    -1.713562670823    -2.619886619119
C      2.894213131911    -1.260438390359    -1.323904473319
C      2.051429831181    -0.186255116092    -0.972027714576
H      0.572645298383     0.428534741926    -3.863040140016
H      2.013868703033    -1.444479599277    -4.551097625856
H      3.525657700690    -2.536751082122    -2.924073871047
H      3.527051786789    -1.678867671556    -0.567879592668
O      2.029356651197     0.246985758525     0.259675095871
H      0.298495193766    -0.440333628000     0.847379922230

