# STO-3G

title

0 1
C     -1.978672068605    -3.144182205275    -0.451228246418
C     -1.684428836671    -4.023721925415     0.610872609813
C     -2.671818865096    -4.906907261434     1.091371694599
C     -3.956049747631    -4.912831205277     0.509353682995
C     -4.249532240892    -4.038249696147    -0.556081303776
C     -3.261356680973    -3.155832980215    -1.037882771444
H     -1.217264722309    -2.467024302917    -0.825077780763
H     -0.690725272101    -4.018246699994     1.053521063358
H     -2.441992191153    -5.586970625817     1.909106457800
H     -4.718295582715    -5.595686614524     0.879180296614
H     -5.237770555763    -4.045963943030    -1.011079307240
H     -3.483295451863    -2.482481143924    -1.863290602739
C     -0.416158709002    -0.812841309800     1.544148145846
H     -0.417278517899    -0.796497526359     0.459048960172
H     -1.321804874761    -1.182316763198     2.014692632318
C      0.675443995198    -0.492333133453     2.275568551029
H      0.661081259540    -0.593457406257     3.351343700580
C      1.957587792900    -0.032183412584     1.717019952560
O      2.023564504707     0.320546765914     0.505258767091
O      3.019621896591     0.219281670315     2.603720029896
C      4.239903423133     0.682048590135     2.008236331344
H      5.000208401327     0.839050128507     2.803088538902
H      4.641005737217    -0.069825639280     1.292830357018
H      4.082925946670     1.649803698868     1.480517636816
Pd     2.243930527365    -1.393907718506    -1.244326886435
C      0.527194888169     0.085666855138    -2.257541293130
O      0.234491896316    -0.975871861546    -1.534743805876
O      1.763776039899     0.161326889557    -2.676856423141
C     -0.548468422611     1.155354698726    -2.441791923764
H     -1.075972232253     0.970538751918    -3.387656205498
C      0.013678109569     2.558558001070    -2.445861466083
H     -0.813522253509     3.291549040488    -2.548189314866
H      0.558078465926     2.752556774502    -1.498372661061
H      0.713056087595     2.684933588948    -3.298844023016
N     -1.523117307578     1.044671000824    -1.363824342896
C     -2.739664415847     0.469822511428    -1.587304192197
O     -3.149463613462     0.091397939491    -2.706063936257
C     -3.600150043360     0.329242514407    -0.396303570958
H     -3.111555876626    -0.360837181317     0.311443188269
H     -3.753414761685     1.328226528913     0.045223382425
H     -4.570639086654    -0.097245909520    -0.711851149581
N      4.191973734252    -1.865395211026    -0.844739730738
C      5.502489935316    -1.656489106494    -1.148726954485
C      6.475020484725    -2.331802766882    -0.429066659173
C      6.126325508954    -3.219866907352     0.577341826393
C      4.794656713172    -3.415031256587     0.856648971287
C      3.842996858525    -2.706005734795     0.100154272329
H      5.775954675452    -0.963372526956    -1.935723133468
H      7.513649522697    -2.169191151628    -0.665025270484
H      6.891701034432    -3.751921908966     1.135825885094
H      4.445770758224    -4.082351973891     1.617515401937
O      2.552515338771    -2.824966959731     0.313765871980
H     -1.173135227548     1.121768311193    -0.415791209805

