# STO-3G

title

0 1
C      1.626419904329     2.549497448194     0.334609691995
C      2.515293632371     2.200619910379     1.366596390844
C      3.641935263230     3.021765472424     1.590284184762
C      3.870597254166     4.164667345731     0.799544521576
C      2.969893167997     4.493250869174    -0.231904501494
C      1.837630410767     3.685199372637    -0.470031047652
H     -2.307540125520    -0.749221555609    -0.893667999065
H      2.369297311811     1.302236563180     1.960891549816
H      4.338597184392     2.754667587057     2.382044702020
H      4.741576507842     4.789676636340     0.983700818826
H      3.139033985967     5.373482408904    -0.849216331977
H      1.141485748552     3.945839620821    -1.264589975624
C     -1.001321138764     1.708830295840     1.693349058560
H     -0.356286321936     1.984750885958     2.520362936995
H     -1.524464965714     0.759459539065     1.799643515903
C     -1.459599342643     2.656386173632     0.741723603179
H     -2.266183507334     2.384031141997     0.071952985291
C     -1.170392473571     4.098602564493     0.813525042927
O     -1.592975010203     4.849678328941    -0.103478300044
O     -0.411749354145     4.602060453978     1.884362709400
C     -0.054845496583     5.988494069976     1.804304184266
H      0.549543215846     6.263328396110     2.695304539703
H      0.560969094788     6.184946062268     0.897559602875
H     -0.963348170226     6.632032926885     1.784535302036
Pd     0.122432586256     1.345193539867    -0.106668911364
C      1.101140404989    -1.191161853602     1.788785608371
O      1.128640345806    -0.675078942333     0.580819690616
O      1.842172395148    -0.946221800967     2.776240706461
C     -0.075663058896    -2.259707448831     1.967300166514
H     -0.503365490778    -2.154580195427     2.969058354797
C      0.412945774167    -3.673463902128     1.751830292482
H     -0.422820848372    -4.389594470523     1.880285990390
H      0.819210235631    -3.776072338573     0.723167396197
H      1.211058726881    -3.913623570573     2.485128753088
N     -1.024249779499    -1.924617234434     0.894425714011
C     -2.325650455618    -1.999409499792     0.758535515709
O     -2.967586788919    -1.436647321654    -0.225512598987
C     -3.118104213544    -2.729888433583     1.757079007345
H     -2.781748023849    -3.779191804755     1.767161348383
H     -2.978130141269    -2.248333889578     2.737870297905
H     -4.184550307493    -2.683553920015     1.466585416351
N      0.450542942555     0.832937198545    -2.231287525670
C      1.342963700283     0.916885346467    -3.262118913418
C      1.096688443303     0.227409803084    -4.437484058819
C     -0.040789035620    -0.547624998998    -4.573903697236
C     -0.913920715645    -0.620169271686    -3.517770014370
C     -0.615266072302     0.102310696539    -2.344523322002
H      2.234093965390     1.525042521112    -3.157636097642
H      1.800870347384     0.298426569963    -5.249493631675
H     -0.237050509048    -1.089885090088    -5.494755770502
H     -1.813542831256    -1.201234975288    -3.539762986295
O     -1.432410061513     0.030504380822    -1.299847443843
H     -0.480569237878    -1.372046805305     0.195163766921

