# STO-3G

title

0 1
C      1.091545930216     3.810606627265    -0.063314632046
C      1.068912120044     3.773588979660    -1.488118041087
C      0.228201280280     4.620607539371    -2.209977583265
C     -0.637774090810     5.522734425519    -1.540511879001
C     -0.639569472433     5.581149795779    -0.145834521654
C      0.222849162855     4.736733936905     0.605738768431
H     -3.815343934110    -0.622354381685     0.602712744405
H      1.700960157356     3.056200095794    -2.001579150394
H      0.216558193777     4.565012341822    -3.294947959315
H     -1.304384503978     6.160423147371    -2.115482661565
H     -1.293549253955     6.274341570510     0.376918491769
H      0.320267773383     4.915801368678     1.673117651218
C      2.086200681288     2.946621736926     0.736470580396
H      2.394992147115     2.112514626275     0.097068890233
H      2.983543853317     3.515722850413     1.012894665798
C      1.277949212021     2.444340253363     1.955120631347
H      1.131014024894     3.206276725106     2.718974982712
C      1.556923976065     1.137266616982     2.587772365590
O      1.270372168560     0.990976192734     3.805760551301
O      2.345738501003     0.196093605514     1.907025018046
C      2.563034228022    -1.044835854621     2.591497739416
H      3.204237545623    -1.701169704804     1.966773114967
H      3.082408448599    -0.879174191295     3.562444238746
H      1.596564438276    -1.568842724551     2.768319707093
Pd    -0.500485439698     2.446249532168     0.933408053883
C     -1.818240721678     1.249788753454    -1.126519843898
O     -0.964456697173     1.357948348155    -2.081244071531
O     -2.310556385760     2.226416352565    -0.423375042024
C     -2.161325402246    -0.222496195494    -0.714751802484
H     -1.182487488320    -0.733435468843    -0.648826444398
C     -3.001073581199    -0.930546059549    -1.757197742874
H     -3.160251748066    -1.985181381820    -1.451542139480
H     -3.983681854942    -0.424277150206    -1.846255873286
H     -2.484351564809    -0.914377341271    -2.739319964384
N     -2.851048826040    -0.314936209650     0.580178646244
C     -2.317678111429     0.111037299574     1.727740507260
O     -1.173458323894     0.653264562151     1.857247852926
C     -3.118339328341    -0.106858804147     2.948375098894
H     -3.314565361203    -1.189110130240     3.034478783926
H     -2.545937647941     0.250315242108     3.822762463574
H     -4.063526527232     0.454308190827     2.846218025234
N      0.817712875613    -1.387222768863    -0.814402494334
C      1.169897526265    -2.641586500470    -0.397306497973
C      2.490964619039    -3.048588376530    -0.460674519586
C      3.462632638687    -2.192406079594    -0.936951452863
C      3.083761112187    -0.938669549987    -1.339458068919
C      1.718730232383    -0.579428028751    -1.264622065072
H      0.409192970885    -3.315518078421    -0.021224331589
H      2.755616378275    -4.042523541283    -0.140905150019
H      4.502105950275    -2.503975998005    -0.991372529051
H      3.781532493897    -0.222942164467    -1.723081322500
O      1.463015211880     0.654208747653    -1.719203719049
H      0.470937030604     0.878103877937    -1.867720453285

