# STO-3G

title

0 1
C      2.082919896816     2.457984395557     1.081024606109
C      3.188538110067     2.592544633371     0.210157898357
C      4.129216635859     3.622366487747     0.393265126130
C      3.979328693460     4.538576270178     1.453295867640
C      2.883787073565     4.412734321744     2.329262196458
C      1.944841894756     3.380654377810     2.142209460914
H     -1.469767078120    -2.807397177090     2.896580694777
H      3.315336564666     1.882254017328    -0.605996080978
H      4.977121134785     3.707151355266    -0.283051749590
H      4.707300780012     5.333831871434     1.596855963548
H      2.764000558961     5.111582431366     3.154398422319
H      1.100497453529     3.288646891121     2.824770432349
C      1.046465599045     1.370743308652     0.840330103181
H      1.529811903621     0.470313104987     0.446482392599
H      0.546897694784     1.095185226218     1.776169716611
C      0.005192676923     1.845905242482    -0.201919905640
H      0.491054423087     2.107661538286    -1.137959184466
C     -1.013016542424     2.853042409661     0.161361403379
O     -1.760611401682     3.283278582611    -0.756535109665
O     -1.316042620701     3.087592754767     1.514278700297
C     -2.367484306963     4.028907992989     1.768004865051
H     -2.501847201666     4.141964336702     2.865228530656
H     -2.114922967968     5.027318623705     1.344190613808
H     -3.329999946588     3.673228958866     1.335508473966
Pd    -1.073940114257     0.173637964736    -0.723810066822
C      0.146306738110    -2.214406630192     0.178981959691
O      1.268771073023    -1.780468578450    -0.360024459747
O     -0.897668001407    -2.594226211466    -0.422817017419
C      0.202697342132    -2.138182608652     1.739579973067
H      0.777443547088    -1.238336824530     1.978414254092
C      0.913084443375    -3.331823316154     2.342336248615
H      0.976863288499    -3.210990677931     3.443708542475
H      0.343700620493    -4.256044965940     2.112123618489
H      1.939313717514    -3.417426727086     1.928088497080
N     -1.133938658774    -2.034945830404     2.338318496497
C     -1.977852228721    -1.025176520802     2.070302619366
O     -1.757815178823    -0.073277239243     1.265770598770
C     -3.262863535985    -0.988824459526     2.799407536665
H     -3.337490602029    -1.825944176206     3.514504588925
H     -3.308759180043    -0.029106721947     3.340794315848
H     -4.076717471345    -1.051093873985     2.056907672092
N     -0.550323162777     0.457436447523    -2.654214670806
C     -1.360715459616     1.267972636856    -3.403856073985
C     -1.052113821939     1.524733434000    -4.721568189028
C      0.067836938499     0.972806316995    -5.299935988637
C      0.866462000990     0.166312243104    -4.534400559450
C      0.533075457435    -0.084866634572    -3.183060264853
H     -2.246470523336     1.706721616234    -2.959232325669
H     -1.695831346200     2.166812110135    -5.300464371066
H      0.314021336648     1.174337436425    -6.339136928929
H      1.753397256143    -0.289451159662    -4.927474103269
O      1.369906849487    -0.844257855469    -2.558646937775
H      1.267907381997    -1.351819989138    -1.463842954263

