# STO-3G

title

0 1
C      0.766066255288     3.929445981834     0.021122443013
C      2.131216677303     4.159720553062    -0.265785647068
C      2.514481914724     4.981741109573    -1.341716720618
C      1.534428392953     5.596197396613    -2.147148666307
C      0.171542032033     5.383664418397    -1.862959358701
C     -0.207094015464     4.556496347245    -0.787375579320
H     -1.590914524805    -0.862592602176     0.139488092288
H      2.898239885644     3.701427794703     0.358110465787
H      3.570241080874     5.152133164527    -1.542794904074
H      1.828850224503     6.240102520377    -2.972815817573
H     -0.592832718145     5.863609589206    -2.470403245084
H     -1.262035893020     4.395663586478    -0.571597397970
C      0.357844692907     3.026774087531     1.171771706446
H      0.862247261306     3.357823103032     2.096168344903
H     -0.717777177446     3.101431907197     1.362801104875
C      0.729990953701     1.549670251438     0.934682057196
H      1.723558428218     1.437831965143     0.509417408443
C      0.569179592766     0.581431705034     2.045106050554
O     -0.309297971331     0.784209442940     2.927100707398
O      1.548544888743    -0.410054547308     2.208753152691
C      1.491801092228    -1.166883908799     3.426245565184
H      2.282099700441    -1.948669386156     3.407790914361
H      1.666801990112    -0.510080654889     4.307392666184
H      0.511310393072    -1.679556513609     3.538128372197
Pd    -0.466095841566     1.042813734316    -0.680445245217
C     -0.848451274481    -2.671095781975     1.249727780405
O     -0.301566566417    -1.999859029770     0.243652410108
O     -0.401134838101    -3.645446328067     1.885024677333
C     -2.263721708058    -2.040963656864     1.629717223033
H     -2.282921597434    -1.891427156554     2.714881528242
C     -3.413303969063    -2.925242231190     1.208548730993
H     -4.374807306211    -2.449134101633     1.487084292415
H     -3.386119976908    -3.059131976422     0.107186133742
H     -3.334311203789    -3.914915779182     1.704366216517
N     -2.332108428744    -0.785954043769     0.870842889765
C     -2.697639310953     0.455663333826     1.138016731622
O     -2.213391219664     1.449440724437     0.467333826015
C     -3.669849409676     0.743265594960     2.202302053840
H     -4.057734938884    -0.194069486744     2.630372782264
H     -3.143112093980     1.332525547042     2.972846340257
H     -4.493546144166     1.330335276470     1.761236341335
N      1.205836110057     0.663365966447    -1.764701313171
C      1.592390582133     1.692863791217    -2.582003832596
C      2.768211797416     1.608790581722    -3.294059003345
C      3.566525316068     0.493233226023    -3.197616441991
C      3.163947844901    -0.526115322533    -2.377966778175
C      1.954562474817    -0.419470633982    -1.652154513979
H      0.967501646898     2.572738727391    -2.672807842793
H      3.061006030761     2.429634537909    -3.927784223119
H      4.495502694890     0.423432624932    -3.757171438176
H      3.745909325380    -1.418460768679    -2.257545394518
O      1.709895438330    -1.443547553601    -0.902345573820
H      0.787524796437    -1.731640986851    -0.307223078841

