# STO-3G

title

0 1
C      2.138587957054     2.476609778746     0.924909129349
C      3.128562859561     2.813055046445    -0.026726053535
C      4.013296990717     3.883405759991     0.198201137743
C      3.923825709589     4.639002619957     1.384093932583
C      2.945450446897     4.310778488860     2.342419230844
C      2.062545186004     3.238848578347     2.112163856094
H     -0.220311800046    -2.214864922713     3.124354281953
H      3.211302882743     2.224064473402    -0.939633788224
H      4.772270067598     4.123258633292    -0.543478466456
H      4.608469866755     5.465507286804     1.560309878602
H      2.873295627781     4.884516877985     3.263991591737
H      1.309362518992     2.992705266339     2.859926337886
C      1.157948030822     1.349081077209     0.640585043901
H      1.655403398722     0.561282865515     0.066268957293
H      0.822745218520     0.886911667885     1.574058038880
C     -0.045048573260     1.857964362902    -0.200351264016
H      0.319382750074     2.263634865228    -1.140200403792
C     -1.052834353870     2.765807456883     0.384821251018
O     -1.912110501650     3.262608659937    -0.390386776516
O     -1.173247333227     2.884028253470     1.781300076261
C     -2.237925729939     3.722654312297     2.249405436056
H     -2.225200659590     3.748803931350     3.360058175538
H     -2.113901096188     4.764511784957     1.875751194565
H     -3.225865604238     3.325598081913     1.922534600672
Pd    -1.063165178793     0.163969447629    -0.779208689139
C     -0.444047550837    -2.435831416015    -0.147336002147
O      0.820860205355    -2.076740454682    -0.209825682548
O     -1.301272138644    -2.323543404094    -1.082235734519
C     -0.841826080221    -2.966465575378     1.259552080514
H     -0.116375176786    -3.745113663800     1.521412557278
C     -2.240542127248    -3.543801569832     1.316387075885
H     -2.442970149783    -3.929244153029     2.337120054458
H     -2.980806275032    -2.753133716311     1.076548213474
H     -2.341370734852    -4.374267994507     0.587373848719
N     -0.738694602690    -1.924595843683     2.305672095085
C     -1.246470266676    -0.678867789610     2.267150487150
O     -1.713306737513    -0.092809618651     1.247608756257
C     -1.310737392118     0.059586055485     3.548364522721
H     -0.948918066701    -0.561795171549     4.385288854198
H     -0.691299460213     0.965648660593     3.455019663939
H     -2.363402491555     0.341074510682     3.721888118658
N     -0.281863627691     0.417370446436    -2.625834333055
C     -0.962276121261     1.179487913457    -3.536480340371
C     -0.418309762684     1.415391180871    -4.780448563272
C      0.804684474400     0.883126364550    -5.122777974031
C      1.463544156853     0.115899549298    -4.199049782568
C      0.882819889507    -0.115563152985    -2.931347088474
H     -1.921983293941     1.608538886658    -3.271595191918
H     -0.957927170553     2.023012178994    -5.488513902149
H      1.236997280725     1.067329795939    -6.102735823586
H      2.416980354784    -0.327873910489    -4.405725575551
O      1.597233182968    -0.850328359880    -2.133094397501
H      1.186498827644    -1.435213067977    -1.197743289935

