# STO-3G

title

0 1
C      1.861489685336     2.356860130952     0.901291203070
C      2.916860560913     2.473793380291    -0.031778470180
C      3.895164953870     3.473950600067     0.113513301284
C      3.832198489399     4.375060236846     1.194841789533
C      2.787212415059     4.263978395508     2.132304987271
C      1.809759836572     3.262148299056     1.984259638239
H     -0.687806410737    -1.468178131741     0.375564544952
H      2.978309471794     1.769825959698    -0.860999734129
H      4.706612895742     3.544754479825    -0.607324718640
H      4.590455918941     5.146219850943     1.308933900533
H      2.737426145170     4.949545423947     2.975267495367
H      1.008238678925     3.179531069334     2.717562535141
C      0.782608006797     1.300082240844     0.702429567871
H      1.215257506366     0.421622787449     0.220804719117
H      0.370612500323     0.979981924290     1.665133435691
C     -0.317408673505     1.865415980955    -0.217599411833
H      0.110028283809     2.200909205437    -1.157441005323
C     -1.299101181243     2.842698398886     0.293611312727
O     -2.116409629247     3.329406480817    -0.532253036025
O     -1.483886064056     2.993465399833     1.680796502818
C     -2.551442330492     3.863942386451     2.078658195101
H     -2.590281869767     3.915954061532     3.187730674916
H     -2.389048204753     4.893915336011     1.687390559891
H     -3.530788155948     3.477530052806     1.715066800779
Pd    -1.562102891854     0.350252933979    -0.897337509257
C      1.358506139290    -2.300921472773     0.815261568821
O      0.845492961131    -1.865551980697    -0.333219036786
O      2.524703769255    -2.654246879914     1.065719327740
C      0.240649607130    -2.323957560583     1.948773530765
H      0.676323749162    -1.890427528315     2.855488704099
C     -0.252842071449    -3.723856278817     2.230967305129
H     -1.031108216763    -3.697730154309     3.019731397231
H     -0.694447468890    -4.148903130577     1.305601222894
H      0.589688145550    -4.363974138830     2.566007667707
N     -0.868472795181    -1.535482539604     1.400139527269
C     -1.758588033748    -0.670172873320     1.852137900478
O     -2.364649866071     0.144852265192     1.056205430431
C     -2.078726290655    -0.597640350618     3.284957236566
H     -1.508639893562    -1.353589054883     3.847330161032
H     -1.823538204874     0.419774243462     3.628317848863
H     -3.161942902383    -0.777239189495     3.397549929610
N     -0.710211144978     0.506274814924    -2.736340496026
C     -1.450295838460     1.212482993757    -3.647796501703
C     -0.933377686402     1.494383844207    -4.892493972348
C      0.329765618606     1.073408594117    -5.237409424349
C      1.055338282760     0.370378094420    -4.314552963250
C      0.505350540359     0.088263398846    -3.042152542797
H     -2.444695618578     1.554641360082    -3.384553230644
H     -1.524623782754     2.054660590378    -5.598495119481
H      0.743160853292     1.296826677451    -6.217434434277
H      2.047812029981     0.021966661888    -4.522700745263
O      1.309835012447    -0.559390124367    -2.261912517282
H      1.133110034267    -1.200603772023    -1.313846927788

