# STO-3G

title

0 1
C     -0.266662275606     3.277173673339    -0.334424833749
C     -0.302765433413     4.326145773547     0.611264487355
C     -0.098391525513     5.661156805361     0.215393832055
C      0.148275600082     5.966244738392    -1.137393719141
C      0.183885637120     4.927526771146    -2.088858807809
C     -0.021277944445     3.594080498361    -1.689589201811
H     -3.641336334551    -0.066068853103     1.855191122035
H     -0.495905882865     4.097351234319     1.659667490219
H     -0.135501887067     6.457854040606     0.955338361958
H      0.303444039307     6.997384502019    -1.446444056906
H      0.362867410021     5.156024439948    -3.137200773848
H     -0.005745734629     2.794696705358    -2.429163021703
C     -0.432646105692     1.825976643768     0.093148840064
H     -1.128424019987     1.752785957212     0.935385341609
H     -0.862692853147     1.252071364348    -0.730683210902
C      0.951104009407     1.231659171248     0.450001148130
H      1.626999155453     1.353777628069    -0.389850676815
C      1.630532503711     1.594478856231     1.711252750867
O      0.954399594434     1.966536722564     2.706511501923
O      2.979838913378     1.225217985227     1.849162081451
C      3.587469887583     1.543607106096     3.109441971156
H      4.652452134687     1.226137734273     3.097997545720
H      3.555181600550     2.641157704296     3.298016539565
H      3.074849474112     1.011446453975     3.943214332301
Pd     0.730210059611    -0.827092539552     0.509633040270
C     -2.453882935705    -0.949534545316    -0.691856032320
O     -1.338572589772    -1.447813096773    -1.207543535213
O     -3.148670712757    -0.003495417922    -1.134111309203
C     -2.798875610397    -1.632216343775     0.669383344088
H     -2.022921591446    -2.369127941444     0.889732987684
C     -4.150199126271    -2.312067271894     0.658287361252
H     -4.345301051838    -2.769279122486     1.650304338279
H     -4.940533585218    -1.561433050486     0.446690601631
H     -4.174827964631    -3.101180638346    -0.120935743779
N     -2.804840449477    -0.628384391573     1.744656384788
C     -1.709130474732    -0.291826238204     2.442807056333
O     -0.534719165773    -0.716713831527     2.224668690273
C     -1.924727201892     0.619597549617     3.581962487609
H     -2.642958513732     0.142434944098     4.269459236066
H     -0.959969914966     0.798654645014     4.088871666280
H     -2.329151462597     1.571545252956     3.195662673139
N      1.996046222268    -0.911504257763    -1.072818040326
C      3.332095002342    -1.075483193219    -0.822926982085
C      4.241517294241    -1.004266582526    -1.854929752206
C      3.822344297818    -0.769317826034    -3.145163767908
C      2.482383704827    -0.610037602311    -3.376539613108
C      1.564505825442    -0.689093318179    -2.304447436737
H      3.673545705675    -1.254102191619     0.190284528664
H      5.291703541440    -1.129302471271    -1.646589806624
H      4.538296208135    -0.708881397707    -3.960731916987
H      2.094779019174    -0.418423927438    -4.357704431088
O      0.326454405480    -0.502559022527    -2.630526437293
H     -0.609952564001    -0.914355226572    -1.945269986214

