# STO-3G

title

0 1
C     -0.527244684941     3.467489570149     0.582571182639
C     -0.084487708522     4.526679440148     1.405589674110
C     -0.079396888052     5.852195916327     0.931509054064
C     -0.514555243275     6.135948911081    -0.377399554637
C     -0.955985745057     5.085866526083    -1.206878945024
C     -0.960468047961     3.762520003930    -0.730452568897
H     -1.396050472886    -0.455516442159     0.378594341795
H      0.251538820363     4.313327165251     2.419634178949
H      0.258226801383     6.658311728835     1.579289413388
H     -0.512043081817     7.159366889864    -0.745363938436
H     -1.294495582933     5.297929993855    -2.218604240921
H     -1.301561845483     2.956426632564    -1.378671224096
C     -0.492705680801     2.026428009211     1.075066278936
H     -0.455493241975     1.985211316545     2.167465175297
H     -1.401713571876     1.513604611557     0.755228729788
C      0.723690343765     1.297838030674     0.466070809457
H      0.570083999086     1.098663115362    -0.592024583780
C      2.063152611264     1.865858020109     0.706583447450
O      2.545325726983     1.746582154409     1.865284663916
O      2.897598608765     2.104838589057    -0.398229194775
C      4.224234289665     2.557514185535    -0.098093395945
H      4.773923650635     2.731447814288    -1.048116057292
H      4.195542281759     3.515890559409     0.468207787774
H      4.781536209385     1.792692658564     0.487852623956
Pd     0.851328894150    -0.598777756225     1.309504558478
C     -2.423248512698    -1.436075139636    -1.348743105456
O     -1.281634173242    -0.738090248800    -1.317072519720
O     -2.878465043522    -2.138363181888    -2.267028380050
C     -3.211449792444    -1.258235383608     0.020246971221
H     -3.636977416710    -2.228013844495     0.298021178895
C     -4.308749319276    -0.224354103344    -0.088484853340
H     -4.838632831249    -0.133770699161     0.880472627942
H     -3.862814294971     0.758764658113    -0.348127851069
H     -5.033074601771    -0.519947613492    -0.875690322766
N     -2.196544778830    -0.774150609774     0.960316367606
C     -1.928131345863    -0.908836289388     2.246150921819
O     -0.764989536286    -0.618399399625     2.719473291003
C     -2.977489568889    -1.379793742899     3.160647143260
H     -3.287518193863    -2.388978246354     2.843576480038
H     -2.564837900927    -1.408621716684     4.184807760828
H     -3.821471793814    -0.670735032398     3.111553129442
N      2.305504351306    -1.005699253829    -0.044259455863
C      3.565647945170    -1.112225121156     0.483322406415
C      4.633615089742    -1.429873575895    -0.325386595339
C      4.451842208104    -1.640975831959    -1.672107237266
C      3.188218496569    -1.529196759884    -2.184178906202
C      2.102495586452    -1.196554224622    -1.339518331362
H      3.721134224113    -0.945771817949     1.543121858660
H      5.619012534033    -1.510556857501     0.103104755095
H      5.292017944666    -1.889250084918    -2.315151932501
H      2.986995349529    -1.673303302136    -3.227343408642
O      0.975661909191    -1.102743527786    -1.958921203529
H     -0.163564316864    -0.949217893224    -1.665586209371

