# STO-3G

title

0 1
C      0.903281905862     3.903057535857    -0.432684317545
C      1.869613283230     4.645463577208    -1.151533548487
C      1.490507398098     5.603394339775    -2.108484577919
C      0.125470362079     5.840446313404    -2.363268512056
C     -0.845306390370     5.113661271620    -1.649611951688
C     -0.462500445990     4.153202433775    -0.692522272678
H     -1.238877433593    -1.073213463622     0.178018749985
H      2.927965208156     4.469724040122    -0.956615218691
H      2.252429449472     6.162338146357    -2.647642931289
H     -0.174850879549     6.580656372457    -3.101302343165
H     -1.902366533135     5.290643617503    -1.836075541612
H     -1.237891538936     3.607635178243    -0.162152226664
C      1.393933120386     2.901014807504     0.602561391682
H      2.334001968725     2.452328281193     0.257825172357
H      1.662636672127     3.454870041847     1.521580783971
C      0.421641521382     1.791504942915     1.018592442641
H     -0.538332002613     2.183514670927     1.347067391591
C      0.898034735508     0.780017228576     1.992711144233
O      2.135450119995     0.648246999071     2.183567351562
O     -0.035134082338     0.224488741106     2.887429977272
C      0.519609089584    -0.573290640900     3.945344898673
H     -0.300066083185    -1.001241177996     4.560688516714
H      1.122032831097    -1.418068396359     3.537166772568
H      1.167696105694     0.044552285209     4.607173964301
Pd    -0.290913168819     0.872967765952    -0.706161372211
C     -0.538385048685    -2.701913338470     1.554098682407
O      0.107896042381    -2.057094993283     0.591607405347
O     -0.115620965037    -3.561657536730     2.351401221124
C     -2.054036942197    -2.213203571111     1.627615715216
H     -2.286191331158    -1.993691610857     2.675091802094
C     -3.014378444302    -3.249196619115     1.093332084743
H     -4.053343144237    -2.870082033323     1.165949246733
H     -2.778489485560    -3.450825837708     0.027660720631
H     -2.923585441311    -4.189138721062     1.676358856492
N     -2.106495036163    -1.031589616010     0.759808104896
C     -2.666526591216     0.159106891067     0.834102475488
O     -2.220500728140     1.157240961140     0.142374063040
C     -3.824500099970     0.362810046083     1.714949906938
H     -4.611952180425    -0.346872963994     1.410830061832
H     -3.500698490241     0.179252077249     2.752498014829
H     -4.181863971813     1.402740984784     1.605174708786
N      1.555088862577     0.559840764565    -1.505456466555
C      1.909619851924     1.494468887273    -2.443383517983
C      3.172147049463     1.483639625529    -2.993680099107
C      4.090141406030     0.531197214013    -2.618378430418
C      3.712911935808    -0.408397781659    -1.698531229555
C      2.411336296027    -0.380005410332    -1.144919545248
H      1.193882831845     2.248182032096    -2.750398274099
H      3.438788176873     2.233351858251    -3.720200366901
H      5.088993977991     0.521054796900    -3.046292953175
H      4.382196346379    -1.178265182384    -1.368861226127
O      2.191416575378    -1.333594388134    -0.299400094835
H      1.237646053096    -1.694114469167     0.170190172832

