# STO-3G

title

0 1
C      1.425172639369     2.907047171148     1.436507052911
C      0.831209164221     3.924080257804     2.217705457578
C      1.497499415435     5.142766041826     2.445005991908
C      2.773196647608     5.364188386203     1.890282259788
C      3.375721491684     4.357021763542     1.110614552296
C      2.706155837905     3.140002651938     0.885883815716
H     -0.963981950544    -2.823021581838     3.355806907652
H     -0.155852024688     3.757868463149     2.649646891774
H      1.026859503644     5.912552617408     3.052967803910
H      3.291436271096     6.304098029050     2.066279823488
H      4.363644643473     4.517693788801     0.684334450552
H      3.179783763428     2.362922447752     0.287646601755
C      0.685602860863     1.609664927079     1.145861349846
H      1.399362707090     0.788274332131     1.028461549718
H      0.005640817569     1.355165703828     1.966801070968
C     -0.105035497001     1.735755831068    -0.179792564170
H      0.572526087225     1.924326973088    -1.008072317470
C     -1.283840904234     2.625342174289    -0.256176050443
O     -2.037441488428     2.743871986999     0.745088239679
O     -1.706786781904     3.045259990853    -1.529166298892
C     -2.874522875231     3.878453111126    -1.555432755000
H     -3.099725001797     4.166416211012    -2.604954661410
H     -3.758015491032     3.338270050358    -1.144940446356
H     -2.707670846992     4.810769910801    -0.968836606069
Pd    -0.789713083103    -0.165454153620    -0.589505551448
C      0.848721425260    -2.108705611021     0.753658265189
O      1.879039433944    -1.411403051329     0.306497517921
O      0.048412222095    -2.809669538803     0.077443170227
C      0.667006939742    -1.914412007962     2.293991143113
H      0.993768741187    -0.893908525562     2.516032174130
C      1.525386084701    -2.875215758800     3.089419361256
H      1.412823469368    -2.666237863419     4.173564185959
H      1.199594950130    -3.916370698601     2.885999731293
H      2.592908812071    -2.759705631498     2.808282604089
N     -0.731141781082    -2.083640950159     2.706253022160
C     -1.745988303796    -1.357853569848     2.207978359924
O     -1.660204225933    -0.469267009650     1.314454393910
C     -3.077185808081    -1.623672573061     2.787092696266
H     -3.329097370938    -2.679546061479     2.589135466671
H     -3.016002813716    -1.434010011987     3.872072769547
H     -3.822024766788    -0.952906570378     2.321803398085
N     -0.098656969134     0.047376039549    -2.472498312585
C     -0.962670296096     0.526600687029    -3.420176164552
C     -0.538854295814     0.696713062598    -4.719601159284
C      0.753074312733     0.390440828340    -5.081404651030
C      1.604349269425    -0.084071787146    -4.120105556707
C      1.150874116116    -0.253008506078    -2.790995540706
H     -1.982797439572     0.770052500667    -3.146604344722
H     -1.227514778929     1.075594702036    -5.456828257584
H      1.090664725051     0.524577573326    -6.105726523368
H      2.622737702272    -0.336107844754    -4.340074337505
O      2.044702272336    -0.687514604748    -1.970027563795
H      1.923144864331    -1.105100878149    -0.816109056697

