# STO-3G

title

0 1
C      0.192694851532     3.868058970403    -0.032653121853
C      1.456914540408     4.491967083519    -0.116615989919
C      1.814628335785     5.257638604690    -1.243925569835
C      0.902369562251     5.426800337726    -2.302918847505
C     -0.371343222461     4.829423245477    -2.220278692906
C     -0.721983001919     4.059078536874    -1.095933633154
H     -1.506341058684    -0.927969331860     0.421167109409
H      2.167810687837     4.387155035157     0.702736125413
H      2.794504110845     5.728795143954    -1.285208714101
H      1.172774107629     6.027244417641    -3.168555382296
H     -1.092251176166     4.971707519349    -3.022626307939
H     -1.711615962748     3.610612800936    -1.033533536076
C     -0.209529247971     3.028620769601     1.173813592776
H      0.209686375366     3.479818730597     2.087341184937
H     -1.297847542911     3.051149322721     1.270651700016
C      0.198606049901     1.533744194364     1.155090601704
H     -0.478095676266     0.944458650543     1.775620042371
C      1.588164037983     1.123491924662     1.465736036432
O      2.544225184970     1.923283436542     1.289751945301
O      1.778441414318    -0.098592278259     2.128225731227
C      3.139238674289    -0.490511964482     2.352882831619
H      3.154539068165    -1.482499502794     2.854585510104
H      3.687890296962    -0.585934237417     1.388510590292
H      3.661118608173     0.242956020412     3.007826681830
Pd    -0.455633854131     0.852178917279    -0.689713771850
C     -0.940262436001    -2.507400556665     1.868073615743
O     -0.288477392108    -2.005023167839     0.830433595913
O     -0.569004000628    -3.346361214432     2.710587518429
C     -2.408250145436    -1.874821905735     1.949579694242
H     -2.580294175996    -1.536205895613     2.977224983186
C     -3.472003236926    -2.870410265070     1.549149034679
H     -4.474706400058    -2.407023612486     1.633059814547
H     -3.303569842417    -3.182133129654     0.497221448832
H     -3.425237659463    -3.761636071068     2.209063330391
N     -2.385489423771    -0.780910489979     0.972626330188
C     -2.953999753374     0.393722866191     0.806302714032
O     -2.445190722181     1.273141080641     0.005267249140
C     -4.175596079010     0.724765540159     1.551668926083
H     -4.955547508870     0.001080559521     1.262379837476
H     -3.952377780661     0.656814856309     2.628807985119
H     -4.491640455545     1.750448305383     1.287579219327
N      1.409445635019     0.425006635496    -1.363696504103
C      1.973292906556     1.443602656950    -2.087902026182
C      3.199083621290     1.270432557651    -2.691382442336
C      3.882247072376     0.084889435819    -2.561067405954
C      3.314778583330    -0.914932428872    -1.818727267221
C      2.057207057145    -0.715682512794    -1.202940053434
H      1.441322745552     2.377944553026    -2.209353154105
H      3.626421409528     2.080750290499    -3.258579790364
H      4.852636013074    -0.052369838939    -3.030489854551
H      3.806531349141    -1.855537570237    -1.669881269476
O      1.672795559417    -1.725105517044    -0.491198884687
H      0.785914013972    -1.864124859784     0.183850175343

