# STO-3G

title

0 1
C      2.070645179250     2.479548772627     1.061696511387
C      3.175078268455     2.610640330987     0.188752980874
C      4.111583843846     3.646039112525     0.361494642485
C      3.958691012828     4.571438520344     1.413090833373
C      2.864391765385     4.449123679898     2.291101340670
C      1.929623284530     3.411428858253     2.114409390220
H     -1.411536391042    -2.729888684972     3.002423749094
H      3.304135711006     1.893434732593    -0.620976104555
H      4.958515085306     3.728171840056    -0.316385055659
H      4.683325074861     5.371161242296     1.548522956974
H      2.742196752269     5.155219294526     3.109698096424
H      1.085994500352     3.322446546670     2.798294581940
C      1.038221859558     1.386184168369     0.831377784612
H      1.524957227619     0.483788449159     0.446576651327
H      0.538944121947     1.118026603033     1.769572040950
C     -0.004070613886     1.847720305439    -0.216142933370
H      0.481200625018     2.099957130465    -1.155115260382
C     -1.023561808552     2.857436280838     0.136221272990
O     -1.771653060077     3.276974259389    -0.786232024207
O     -1.327407726073     3.105245210833     1.486495377218
C     -2.381510144903     4.046080261977     1.730575998662
H     -2.516643018492     4.169213079118     2.826622375052
H     -2.131474465832     5.040977475942     1.297186675813
H     -3.342849167184     3.683497947832     1.301273774581
Pd    -1.081362220573     0.168426151354    -0.720072154111
C      0.163445091652    -2.205017579034     0.210561156481
O      1.277034624127    -1.767474196771    -0.343100988941
O     -0.887241869966    -2.588129076238    -0.377212031297
C      0.241712778891    -2.131929439774     1.770389440805
H      0.843285994404    -1.248032990904     2.003914445007
C      0.927851350957    -3.346121072751     2.360035343699
H      1.015820402517    -3.227902054427     3.460010407222
H      0.326956199571    -4.252868734983     2.140429871910
H      1.943325789198    -3.461696321020     1.926950570264
N     -1.085834060930    -1.999774592638     2.382826554250
C     -1.942076708135    -1.004844859194     2.100390076936
O     -1.754849415408    -0.067529833566     1.272954547924
C     -3.208198616352    -1.006196749601     2.858894045434
H     -3.741138926077    -1.944360800876     2.627037843864
H     -2.957882953660    -0.955642603294     3.932056508363
H     -3.816449833614    -0.132437744232     2.563345613394
N     -0.566281208964     0.437250377562    -2.654565368539
C     -1.383337506738     1.235900618045    -3.409695516873
C     -1.081012644626     1.479737530313    -4.731340654520
C      0.039493986727     0.927035835522    -5.307918268878
C      0.845015707769     0.132888882605    -4.536671997351
C      0.517832933015    -0.105138066765    -3.181467743108
H     -2.269634241789     1.674991323376    -2.966491260683
H     -1.730076325912     2.112347863971    -5.314684005071
H      0.280750929071     1.118452164480    -6.350171176032
H      1.732798948413    -0.322663143479    -4.928040038649
O      1.360731173052    -0.853556013672    -2.551741728630
H      1.265467855283    -1.348489760848    -1.451744862388

