# STO-3G

title

0 1
C      0.240090983765     3.978340386317     0.298734404604
C      1.472195702449     4.667292591702     0.273606398363
C      1.803088601231     5.524727778226    -0.794143161674
C      0.894000238141     5.721470249418    -1.850600093299
C     -0.350670629694     5.061618198115    -1.823168272364
C     -0.673800448442     4.200367100002    -0.758566038785
H     -2.203436251073     0.517732567630     2.354471535042
H      2.180504180496     4.538110023847     1.091730989810
H      2.759651537307     6.043086326303    -0.791547301831
H      1.143820930711     6.389618817972    -2.671635919160
H     -1.070392648940     5.223498673867    -2.622771128221
H     -1.643279983531     3.706515457691    -0.739353739870
C     -0.117850305325     3.022628677060     1.431904761555
H      0.303359618580     3.400539511329     2.377350346847
H     -1.205754001174     2.998348777990     1.546101126161
C      0.341607905586     1.555341720893     1.246757978346
H     -0.268327383035     0.859662913997     1.825394552320
C      1.762344684316     1.170756962223     1.420489856556
O      2.677920949204     2.027022450760     1.303953800048
O      2.050101641898    -0.156795992902     1.776705250814
C      3.440014300933    -0.503981622552     1.841516935943
H      3.536678087534    -1.579226847747     2.106155237053
H      3.933806811257    -0.345054284806     0.855733712461
H      3.962792908568     0.097002475050     2.619472962216
Pd    -0.439142480185     1.022567565119    -0.586238181695
C     -1.302272095237    -2.322755973190     1.623845083405
O     -0.702514529607    -1.512847704763     0.758706039075
O     -1.036960014506    -3.509980403218     1.898312654316
C     -2.463924683346    -1.565805241475     2.380104855083
H     -2.114702039246    -1.423273336334     3.410782369101
C     -3.758664016308    -2.348519225754     2.447584591726
H     -4.565435398696    -1.702741974412     2.852653201263
H     -4.048176842164    -2.723852230631     1.449134717435
H     -3.629530053168    -3.223335134628     3.118878660536
N     -2.693801347928    -0.209125139929     1.834755959492
C     -2.881955826563     0.175703515840     0.561837428544
O     -2.476339976472     1.317759172698     0.134886870404
C     -3.637068505271    -0.689525011451    -0.361322140634
H     -3.090103128056    -1.635932198610    -0.501064762095
H     -4.635927918159    -0.852606065834     0.076643426410
H     -3.743841827629    -0.172885509086    -1.332314467960
N      1.359731113008     0.524701269963    -1.354937565168
C      2.136132432256     1.493363602882    -1.932661065971
C      3.307261660176     1.144819029766    -2.569173993730
C      3.715295448159    -0.168591643581    -2.622226976353
C      2.935994569368    -1.121077553035    -2.020482175040
C      1.741661778422    -0.746459032260    -1.362094078030
H      1.821195441312     2.530102085083    -1.900222532908
H      3.909912413825     1.915802654016    -3.020739955389
H      4.640226203663    -0.442488295252    -3.122691817203
H      3.209725659176    -2.157231235217    -2.014947220029
O      1.108098860570    -1.715396736843    -0.794803935701
H      0.191769858628    -1.670708405464     0.030263365310

