# STO-3G

title

0 1
C      2.275171027888     2.413705947729     0.443934871852
C      2.400710501334     3.807487940330     0.241851063613
C      3.214658914655     4.589261134519     1.082114110132
C      3.918998531085     3.987397325860     2.143522506164
C      3.808693089184     2.598273302286     2.350266132912
C      2.993662710167     1.820286254112     1.506922000263
H     -1.472765209698    -2.480990356197     3.232918077414
H      1.868272972851     4.278218395217    -0.584565640018
H      3.305729290605     5.659187186950     0.907028664263
H      4.551542170988     4.589284018995     2.792062455219
H      4.362866998141     2.123821268169     3.157463899997
H      2.929023818442     0.743143095861     1.655346904968
C      1.351024885247     1.575445492630    -0.427027686800
H      1.336101450036     1.943806104419    -1.457157897250
H      1.696968281804     0.540330727670    -0.455475770735
C     -0.071544613419     1.587779108132     0.175324214799
H     -0.049712190712     1.191630522622     1.190346616917
C     -0.866846118196     2.832892736578     0.134087847120
O     -1.020637527598     3.417116303559    -0.970957867383
O     -1.688737001872     3.137647436016     1.231209486317
C     -2.476175382248     4.330718170314     1.112909008104
H     -3.064389449071     4.476382494439     2.044608997936
H     -1.824036761637     5.222493555443     0.971467839188
H     -3.189669798106     4.253194138866     0.261463687478
Pd    -1.257662413361     0.148611959755    -0.710966810103
C      0.126920831340    -2.199807308923     0.498124259052
O      1.175106844410    -1.691056291442    -0.135042885597
O     -0.783750166050    -2.917170482239     0.019860891843
C      0.109878286174    -1.740236142755     1.993786436823
H      0.488110198582    -0.713672018992     2.009427041250
C      1.010491386666    -2.590711621676     2.864099335545
H      0.995020993277    -2.205670948274     3.904855905984
H      0.645521979813    -3.638759386303     2.861169038765
H      2.052144923156    -2.561887158150     2.481990824907
N     -1.245262346035    -1.771319776372     2.548987937709
C     -2.256220009176    -1.026367755845     2.075839902480
O     -2.195736497356    -0.186233505950     1.132192129387
C     -3.555825612420    -1.192070829845     2.754443275150
H     -3.414325555467    -0.950770682295     3.821801210563
H     -4.293515415701    -0.508360801106     2.299555484881
H     -3.876461646795    -2.241705520612     2.631550866250
N     -0.557086302693     0.428122468679    -2.588561446777
C     -1.202983181639     1.366029669071    -3.349675748373
C     -0.840848275025     1.561078752852    -4.664242356524
C      0.176689608457     0.827488949957    -5.228013107973
C      0.819956463418    -0.097957766299    -4.452003027265
C      0.437851184988    -0.283597355755    -3.102383147954
H     -2.014365670361     1.943129786861    -2.922391361239
H     -1.358850902974     2.301771042366    -5.251139596159
H      0.466151676989     0.982220905455    -6.264058612339
H      1.626460383574    -0.692560993609    -4.832779623161
O      1.136960876148    -1.157578524278    -2.468135302351
H      1.114252700840    -1.505218200907    -1.265193645961

