# STO-3G

title

0 1
C      2.115328046562     2.459914987425     0.982767078568
C      3.172562286128     2.623977342013     0.058744158556
C      4.109761669891     3.662038269360     0.211956019494
C      4.005376731169     4.556722913274     1.295407638991
C      2.958841021929     4.400855344449     2.224979474528
C      2.023616827555     3.360623338661     2.067579267845
H     -0.251199748738    -2.271390552951     3.135500093213
H      3.264202491685     1.928337244630    -0.774831003349
H      4.920282156370     3.769323228702    -0.505821972137
H      4.730647053867     5.358275333210     1.415705263305
H      2.874822309901     5.083088979313     3.068263299125
H      1.218153377358     3.246539576585     2.792583229097
C      1.081083723298     1.365062897918     0.774508766468
H      1.549634610550     0.496220363899     0.302155017659
H      0.686146399447     1.026904918254     1.737104485268
C     -0.062835327122     1.859039646665    -0.152671904768
H      0.360264983226     2.228421251452    -1.082597545210
C     -1.088816084654     2.796085774151     0.346677314574
O     -1.908572826257     3.263842796668    -0.487026817396
O     -1.279314362982     2.962602165563     1.730564992073
C     -2.345955824982     3.841256578321     2.113865652788
H     -2.389370902389     3.907194194429     3.222178733299
H     -2.177805785140     4.866194042677     1.711667765417
H     -3.325600897364     3.455756818897     1.750116414529
Pd    -1.076212950346     0.169611262180    -0.751979526060
C     -0.436212332090    -2.441731484884    -0.152502300059
O      0.821372507977    -2.053626801197    -0.195386348805
O     -1.285813098671    -2.333250258135    -1.093691974328
C     -0.836351760258    -3.001977683358     1.243163806346
H     -0.107839076932    -3.781167150136     1.494864247021
C     -2.232815832102    -3.585560206844     1.285245505686
H     -2.436732713737    -3.989886139846     2.298313540042
H     -2.975156837595    -2.793234366105     1.057575563836
H     -2.328210343891    -4.403092346306     0.541064262943
N     -0.741569677762    -1.973762776820     2.301259207059
C     -1.232752253863    -0.723225574133     2.273878921077
O     -1.720625999932    -0.123901087193     1.272437002145
C     -1.219632366306    -0.008571333285     3.567006890059
H     -0.174304870380     0.065333410091     3.912306025289
H     -1.650911212760     0.998048486411     3.428493031549
H     -1.823988870453    -0.588703783495     4.285854438525
N     -0.292541489424     0.449247603747    -2.593723097506
C     -0.976185546190     1.211029734032    -3.502208170465
C     -0.424544936441     1.468063463204    -4.738672000430
C      0.809763782854     0.958388793322    -5.074947263557
C      1.472268950238     0.192189164635    -4.152840244954
C      0.883644838940    -0.060723483561    -2.892998946903
H     -1.944875735042     1.622283373107    -3.241806665181
H     -0.966816805802     2.075177206799    -5.445098417518
H      1.248271545106     1.159805458962    -6.048740564159
H      2.434988227296    -0.233338169997    -4.354513273318
O      1.603268261865    -0.789454472723    -2.093161087421
H      1.189360516340    -1.391530108061    -1.172450997796

