# STO-3G

title

0 1
C      2.731217990722     1.487909827434    -2.008371317779
C      2.505752195998     2.767726238920    -2.586882845706
C      3.088891240421     3.914124445697    -2.008205523676
C      3.900115760131     3.786182590681    -0.868613211501
C      4.162469188985     2.513019170156    -0.312075580535
C      3.590305797974     1.369584880834    -0.883490644303
H      2.374621126947     0.590378810372    -2.498977983436
H      1.927345415025     2.851720285579    -3.502731660132
H      2.902923082951     4.894201550120    -2.440133800412
H      4.330504732939     4.670528297131    -0.406520246145
H      4.796763728361     2.428830067141     0.565624148400
H      3.799319930109     0.381521960380    -0.482695941643
C     -1.702111843193     2.418187525496    -0.702054728680
H     -1.769177666189     2.432170699911     0.381731376715
H     -2.283186025423     1.653629537196    -1.207487267971
C     -1.123727474997     3.477523694134    -1.419185754937
H     -1.218067477685     3.525664788129    -2.491881093774
C     -0.622381483444     4.720579704125    -0.801729583406
O     -1.034493002553     5.060495555355     0.338644439089
O      0.088209752749     5.619280003490    -1.616487280916
C      0.638807716723     6.757434198126    -0.938701902528
H      1.197691458278     7.386409675208    -1.663812459307
H     -0.167415722723     7.379478859679    -0.487043223328
H      1.345393310651     6.434109935089    -0.139119088264
Pd     0.392429400606     1.793012293493    -1.180519392341
C      1.332474293846     2.322324080309     1.621885277598
O      1.045304485975     2.815643136695     0.401164507068
O      1.980702660127     3.003071171917     2.446249854940
C      0.830468710220     0.895708699529     2.033070077406
H      0.192568299626     1.075670653785     2.907705962219
C      1.976261084486     0.001407604815     2.458344324241
H      1.579796295081    -0.965061400205     2.833835704217
H      2.645508325573    -0.192097633867     1.597550922716
H      2.558593617378     0.484562883168     3.271382293067
N      0.030117617781     0.151214249254     1.059361455397
C     -1.308503301516    -0.004194549576     1.260832310807
O     -1.994441010543     0.663097033709     2.072988273381
C     -1.967618376723    -1.048699974560     0.449377045051
H     -3.025425960104    -1.120210433787     0.762573457876
H     -1.910254454975    -0.768642662016    -0.612345971735
H     -1.456344913525    -2.011222009693     0.630684381106
N     -0.183957222254     0.648245898813    -2.777752814945
C     -0.775108183300     0.971335442028    -3.967550255257
C     -1.084783829299    -0.020623365070    -4.872930013686
C     -0.796895926916    -1.341115579368    -4.603536694949
C     -0.193126976113    -1.651576192545    -3.413960477406
C      0.122477813336    -0.624504289038    -2.495186599525
H     -0.999586138279     2.002948999892    -4.204335716250
H     -1.551796632058     0.243882547084    -5.808203180204
H     -1.037833090611    -2.119570651192    -5.322987304844
H      0.070295246195    -2.657373445939    -3.154103226540
O      0.702781685444    -0.957120764716    -1.404254351733
H      0.466091616595    -0.385187224538     0.297203261725

