# STO-3G

title

0 1
C     -1.557741004600    -1.202923594599     0.833835946737
C     -0.801046463770    -1.355996423027     2.027476181569
C     -1.083489784402    -0.549305243078     3.150505876016
C     -2.121150727480     0.395849453192     3.089014416846
C     -2.902731450353     0.527152336268     1.918452092527
C     -2.630084862111    -0.274188420480     0.802250887308
H     -1.403395108294    -1.866353982833    -0.009569798934
H     -0.041818536910    -2.130128598478     2.087002984879
H     -0.495846867372    -0.658543818887     4.058986188254
H     -2.326650728110     1.032483023264     3.945846201401
H     -3.704969171259     1.258569262887     1.883531230391
H     -3.240528717569    -0.198294333525    -0.093087103407
C      2.591781017422     0.920255443726    -0.002960159126
H      3.295143298356     0.263847805181    -0.508400883944
H      2.303468775259     1.817842793456    -0.542223679685
C      2.295811691680     0.790092493625     1.363384249712
H      1.658412015409     1.534238341078     1.817123365208
C      2.968754273958    -0.120791425449     2.302932249877
O      3.929059158572    -0.834276794605     1.907272186859
O      2.472643071643    -0.226391816717     3.612880132296
C      3.169270424439    -1.133028589909     4.479126145310
H      2.692080496385    -1.122254465342     5.483049679126
H      3.124702233917    -2.173107509850     4.084157306351
H      4.233549531780    -0.826841504371     4.598876831949
Pd     0.581550956961    -0.068689354671     0.072645500535
C     -0.846306601665     2.583625899993    -0.170864523045
O     -0.154195148690     1.721092138863     0.601058071002
O     -1.452628005517     3.548590526849     0.341098429729
C     -0.849872445711     2.414403008702    -1.729022283007
H     -0.451474551345     3.367325314096    -2.098864525532
C     -2.252129971674     2.242204517097    -2.273218338425
H     -2.226426736113     2.241174432381    -3.383012350100
H     -2.680229388996     1.282745032895    -1.922784379297
H     -2.901085958667     3.077466579495    -1.934457286243
N     -0.028012037225     1.343445904722    -2.288410092750
C      1.204228589468     1.622191430514    -2.792751556437
O      1.828914122220     2.693752001224    -2.585116410668
C      1.843441698253     0.584666533109    -3.631187789962
H      1.131923642376    -0.213056971471    -3.905279996155
H      2.197259642198     1.082200568688    -4.551121001844
H      2.704168169927     0.171693102731    -3.078004599508
N      1.216322328618    -1.897907455468    -0.584833385663
C      2.171561598249    -2.764937336778    -0.131734007095
C      2.468243417010    -3.901235752323    -0.854595395521
C      1.810024974882    -4.185396404911    -2.030648069150
C      0.845259426220    -3.317282612233    -2.468006073914
C      0.551297105642    -2.156778242404    -1.715740161847
H      2.675211427587    -2.582094884502     0.803719861980
H      3.223375927023    -4.576712590338    -0.485869818367
H      2.044621587130    -5.084600338350    -2.594360103039
H      0.285518986568    -3.492531832031    -3.364461804115
O     -0.370050825070    -1.380646850444    -2.155043504173
H     -0.383959643986     0.380303116964    -2.356934455988

