# STO-3G

title

0 1
C      1.976843149417     0.768420078386     1.716665709064
C      2.734690071819     1.472343678726     0.747102967019
C      3.520350509984     0.766713157476    -0.176900572059
C      3.571421655444    -0.642638911980    -0.127735372274
C      2.847873688301    -1.346631675868     0.852777493968
C      2.050088728925    -0.646121140677     1.778333921216
H      1.440291408977     1.308644125616     2.489142111839
H      2.710536462909     2.559711491138     0.722376661765
H      4.085805978755     1.303963664195    -0.933184005426
H      4.169413485968    -1.188497284307    -0.852658579211
H      2.906935343984    -2.431524798179     0.895302431877
H      1.496881868212    -1.167717337949     2.554575032751
C     -1.792313427659     1.974449591637    -0.660248758165
H     -2.107520830641     1.245623323474    -1.402423505494
H     -2.546949665149     2.280100611539     0.057263244184
C     -0.570528560594     2.663430096143    -0.782594556981
H     -0.328661628495     3.489209800176    -0.132600650505
C      0.317012587940     2.561942662868    -1.958320232780
O     -0.166187375062     2.217609801520    -3.069181750165
O      1.575893827252     3.183819065002    -1.880357946507
C      2.411062955345     3.026293353740    -3.036115360883
H      3.387046904913     3.526162135808    -2.859162122887
H      2.601861166947     1.946847547168    -3.239022000742
H      1.939661393774     3.489991429039    -3.932550851988
Pd    -0.360327956231     0.862218498452     0.615685685891
C      0.104411736940    -1.386145268374    -1.255353790056
O      0.279508612359    -0.061640467288    -1.033836185573
O      0.607652132876    -1.944611324525    -2.248043756395
C     -0.638896052262    -2.185615045747    -0.135024780429
H      0.148387793265    -2.496728033638     0.564563766884
C     -1.320313926607    -3.435226912408    -0.656697767338
H     -1.862161160032    -3.946184288542     0.165568723788
H     -2.036983907260    -3.171177174173    -1.462442057691
H     -0.564133605951    -4.131551960644    -1.076035253542
N     -1.592062989118    -1.393150089998     0.660338355048
C     -2.808367293571    -0.965251025913     0.197144021882
O     -3.164104843472    -0.946898897774    -1.002679117317
C     -3.751349872933    -0.497198283478     1.235290778678
H     -4.714040587093    -0.254374651055     0.748608225825
H     -3.898051337619    -1.313430850466     1.964092374122
H     -3.343652665004     0.401548896775     1.723025879033
N     -1.004367743987     1.726294178719     2.377837635787
C     -1.274594989015     3.036230442549     2.670877262663
C     -1.666331083031     3.395284605235     3.941879708575
C     -1.785376420764     2.453903583093     4.938863537601
C     -1.514196251836     1.146826785780     4.639160941703
C     -1.115080535786     0.787762477926     3.330595918111
H     -1.191100599786     3.798502598020     1.909757916952
H     -1.875802788933     4.430783970284     4.158367930629
H     -2.088772079190     2.742231382720     5.942106754795
H     -1.584301050275     0.369212361858     5.373518424997
O     -0.878697354115    -0.450561222472     3.114645544888
H     -1.383301379015    -1.278119794508     1.668490928765

