# STO-3G

title

0 1
C     -1.330289374907    -2.070558982538     2.274860163595
C     -0.527604326170    -3.008243825454     2.968065128793
C     -0.359728063563    -4.303017804376     2.451210666423
C     -0.990633229267    -4.672901528937     1.239568361223
C     -1.807534479223    -3.756567096540     0.559331094749
C     -1.985086621893    -2.452856880415     1.078206845200
H     -1.513582438636    -1.081040435383     2.678971091191
H     -0.057802500790    -2.728746236546     3.908279630799
H      0.250262527156    -5.029294320170     2.983843482200
H     -0.848244780067    -5.673630819184     0.838342727016
H     -2.299494621348    -4.043696543951    -0.365683794573
H     -2.691825149528    -1.768947586559     0.619560355646
C      1.084625999494     0.274557809672     2.224372244395
H      1.595743930958    -0.458471211252     2.840179687734
H      0.166786084930     0.700231907790     2.615052607164
C      1.674737047998     0.857330499905     1.100038956083
H      1.194396207491     1.699920889647     0.619827100039
C      3.049811610821     0.576017465285     0.647229184930
O      3.749339907629    -0.275927605173     1.258589801237
O      3.538132877752     1.236676945183    -0.491274686500
C      4.873548508791     0.898082068481    -0.890940479748
H      5.147133420847     1.485231530087    -1.794204819327
H      5.602091381203     1.143952066320    -0.085074986603
H      4.949836494009    -0.184373334037    -1.142076340025
Pd     0.019404334865    -0.662208654388     0.403511837918
C     -2.246190703666     1.169329970376     0.030281133206
O     -1.331892224538     0.729519169430     0.927513344800
O     -3.242458562257     1.830225839213     0.375398783899
C     -1.976222723210     0.833321133361    -1.472098702097
H     -2.022102869335     1.803917458318    -1.981629884109
C     -3.032450766567    -0.072476202670    -2.068556132179
H     -2.872092759569    -0.159679345634    -3.163601175355
H     -2.972984784081    -1.084449085622    -1.622107245611
H     -4.044181348947     0.349735087298    -1.890769411887
N     -0.657568377272     0.224511603394    -1.729152991999
C      0.379353433684     1.084940526142    -2.037239371738
O      0.387223631631     2.300863953852    -1.752086795974
C      1.519915405897     0.490551919941    -2.761310089260
H      1.990625187464    -0.273080237481    -2.122899888824
H      1.144933901581     0.042732471432    -3.697772972250
H      2.252072547913     1.288465010826    -2.986007772240
N      1.222562573744    -2.197838073675    -0.152901253575
C      2.131406083167    -2.794464364192     0.678171228435
C      2.781354397934    -3.942916327281     0.281365298488
C      2.525733960701    -4.510116638417    -0.945028040101
C      1.599769537932    -3.918207611754    -1.760602213591
C      0.924989115143    -2.747356926081    -1.338446098485
H      2.336383912348    -2.374786615422     1.653184741310
H      3.499623611467    -4.395807335846     0.944608509895
H      3.040714332325    -5.415286763660    -1.255395144709
H      1.342354662698    -4.327286284705    -2.716356548875
O      0.045914954577    -2.281002581083    -2.142024358640
H     -0.548431856246    -0.776837469999    -2.044130332911

