# STO-3G

title

0 1
C     -1.599545932027    -2.365821895473     1.661769688055
C     -1.128903794018    -2.899355069412     2.888010719846
C     -0.639398223029    -4.213298849037     2.944044032190
C     -0.610543407779    -5.012062565497     1.775248631323
C     -1.081814354153    -4.497557471587     0.558749618357
C     -1.581657814089    -3.173834016157     0.493774390143
H     -2.023817163430    -1.366342932295     1.630572716334
H     -1.165458956170    -2.287127085841     3.785923156681
H     -0.289683337456    -4.625187934771     3.888310682046
H     -0.226343413942    -6.028636287491     1.821687935450
H     -1.055972594900    -5.104593630487    -0.342365162201
H     -2.004638568849    -2.799635349159    -0.434765821307
C      0.920358787158     0.244463353296     1.598644929376
H      1.369029929351    -0.223350273340     2.469975422333
H     -0.018598378375     0.766552735614     1.758050503561
C      1.647158526732     0.441857964874     0.402361344023
H      1.236748966960     1.084309768793    -0.364512156971
C      3.065253036394     0.084160956713     0.222134047201
O      3.741974600808    -0.318750868004     1.208277652873
O      3.643423545940     0.230728583670    -1.050372370780
C      4.980818651270    -0.268054841185    -1.187707503859
H      5.326183644867    -0.111119100136    -2.231900855960
H      5.676578619294     0.270805344531    -0.505291165582
H      5.017163969859    -1.360173918616    -0.969478983422
Pd     0.286734959376    -1.342472807693     0.199113011559
C     -1.887958755981     0.823512636251    -0.070251744756
O     -1.175713491725    -0.190627332609    -0.547716733326
O     -2.160516615159     1.038263590646     1.138309521131
C     -2.351684992510     1.787611082331    -1.209656797966
H     -2.130973765296     2.800428403892    -0.856291113707
C     -3.832388425954     1.676659464210    -1.498995483209
H     -4.108662711462     2.378171994897    -2.313788649382
H     -4.086543971974     0.640493088275    -1.802896652361
H     -4.413911386812     1.938158117788    -0.589839772218
N     -1.614975300192     1.534525076465    -2.442022408652
C     -0.293099483318     1.835112816976    -2.500404242585
O      0.331968339188     2.452756055902    -1.601655063302
C      0.424429162250     1.356590519233    -3.698478221096
H      0.390319695837     0.251784842449    -3.709103203328
H     -0.053910089115     1.790627537029    -4.592354516152
H      1.478424286660     1.687078639726    -3.633165924363
N      1.776915435596    -2.646978647497     0.465362481177
C      2.534191631075    -3.086843785778     1.510283781548
C      3.426553517122    -4.122812496964     1.310532319070
C      3.561862038043    -4.712699076814     0.068634187440
C      2.783230491011    -4.263487692860    -0.968347800256
C      1.864426837747    -3.213788554332    -0.739692958126
H      2.440827324544    -2.620633648530     2.483820689653
H      4.030761686098    -4.460617570639     2.135392727185
H      4.269235977417    -5.523164193322    -0.083214966047
H      2.825263590375    -4.687312010491    -1.949814194867
O      1.098109688440    -2.808903994300    -1.685508594301
H     -1.948852988656     0.798631924262    -3.049198653052

