# STO-3G

title

0 1
C     -1.485224401307    -2.188345971519     1.768508197650
C     -0.956676493536    -2.541427895198     3.037838267967
C     -0.518644276289    -3.850626850529     3.279372809146
C     -0.589084755506    -4.828052713200     2.254242127574
C     -1.112983550602    -4.497024902980     0.998772536329
C     -1.568897450437    -3.176853272255     0.746312581038
H     -1.902673826452    -1.197903667436     1.602630422192
H     -0.920468075071    -1.794144256728     3.826853928976
H     -0.130946222556    -4.125536079445     4.257993538034
H     -0.238389295362    -5.839615981631     2.445552310341
H     -1.163721542471    -5.240356824508     0.208406033365
H     -2.068592327188    -2.950219312856    -0.192301465809
C      1.117199142463     0.401259997890     0.601387492053
H      1.596303362879     0.308046250139     1.570944418686
H      0.235787323985     1.031813052866     0.569083413359
C      1.765524177079     0.018571092437    -0.589199124896
H      1.357113329660     0.321785039582    -1.541068142472
C      3.149330104708    -0.487410475807    -0.647537230994
O      3.853206988878    -0.506897290896     0.400196727111
O      3.675291872075    -0.882278510860    -1.888196104218
C      4.966542226534    -1.504173955710    -1.848749163854
H      5.268124809257    -1.787249936149    -2.879935702422
H      5.730849940867    -0.804958794174    -1.440492745752
H      4.938053452997    -2.429565388915    -1.228896939369
Pd     0.248257507881    -1.560823383821     0.034584670423
C     -2.017891795713     0.442178599293    -0.567332581883
O     -1.186825370176    -0.526208058032    -0.955897943252
O     -2.419981652168     0.660899262079     0.602500027143
C     -2.362728021954     1.384840273666    -1.764337978659
H     -2.781023317051     2.309571262013    -1.356468678706
C     -3.365593566947     0.778480414674    -2.719496973854
H     -3.544103060833     1.476229262209    -3.564180399344
H     -2.980440660213    -0.181755652495    -3.123204921647
H     -4.325886850893     0.591708615219    -2.194885760554
N     -1.111223135407     1.607710851263    -2.496241564095
C     -0.187027961808     2.591216130835    -2.315634598274
O      1.031167001814     2.435420488439    -2.582809926042
C     -0.662291017683     3.896959753848    -1.814056376713
H      0.187101798596     4.604849708522    -1.835499967849
H     -1.461929141532     4.254157202898    -2.485176547997
H     -1.016478252926     3.780442333149    -0.775701007823
N      1.717778075670    -2.753946736855     0.661811474836
C      2.433269601793    -2.835323422731     1.819671439787
C      3.347215349389    -3.857705963244     1.981526621181
C      3.550308786225    -4.790416309458     0.983935629659
C      2.819490842800    -4.695533761143    -0.173072626723
C      1.874303376580    -3.652706541958    -0.318326312661
H      2.286657708896    -2.099675797759     2.601302503961
H      3.916381973666    -3.913862710589     2.893692724619
H      4.275660738731    -5.588606537688     1.114138598397
H      2.920115276820    -5.391745505510    -0.979383596857
O      1.171602373773    -3.575702287538    -1.380401684322
H     -0.688458792960     0.737596840899    -2.815168132745

