# STO-3G

title

0 1
C      2.213765974738    -0.304437173560     1.002318344404
C      2.888607029740    -0.208129032992    -0.231770331182
C      3.975945079180     0.677522055344    -0.367714329467
C      4.385299513651     1.469469875353     0.724602103736
C      3.707970485259     1.374784320192     1.957392948377
C      2.624839135479     0.485656392709     2.095681600865
H      1.404823172226    -1.020455227085     1.130884157351
H      2.561768693328    -0.818453808513    -1.069090173190
H      4.497353272680     0.751451196195    -1.319326010094
H      5.228202549879     2.148349082584     0.617587180305
H      4.027275763113     1.978425801600     2.804115206931
H      2.105386631635     0.397311310866     3.048120977191
C     -1.537023119701     1.471767899724    -1.300819176661
H     -2.111250935363     2.259637002679    -0.821831422965
H     -2.109450609301     0.681113881029    -1.779157515263
C     -0.149871447918     1.587496563077    -1.530180558249
H      0.326787320935     0.822009407645    -2.123117208467
C      0.665409450554     2.784625170362    -1.263953368679
O      0.151564761290     3.774851847081    -0.677993533852
O      1.987063555864     2.821167437550    -1.736232646742
C      2.755493102629     3.972564421702    -1.362297744351
H      3.779755407366     3.881269762913    -1.783034603174
H      2.295319645606     4.904214753826    -1.762672627719
H      2.842272116684     4.043980180713    -0.254230959209
Pd    -0.573699100254     0.303009380776     0.278230978467
C     -0.779574789316    -2.327186638029    -1.259666203745
O     -0.231234953397    -1.097652908368    -1.117156934218
O     -0.423287974142    -3.067398535193    -2.196371419090
C     -1.760171435620    -2.821107421162    -0.146039756316
H     -1.120263395493    -3.294943732259     0.611987079903
C     -2.734999322836    -3.864083945488    -0.653733219513
H     -3.417078660292    -4.177417692997     0.163350786658
H     -3.334137737811    -3.448727652422    -1.490947758075
H     -2.183395339029    -4.754884270466    -1.021131789454
N     -2.505357082048    -1.769597092218     0.549812697051
C     -3.434471399092    -0.958322816152    -0.019949152235
O     -3.715974523864    -0.916180443624    -1.242506395488
C     -4.144582968693    -0.063773429667     0.919060410826
H     -4.895249828657     0.515388603217     0.350038581980
H     -4.651976493619    -0.688555733481     1.674392017926
H     -3.421605683523     0.623342785421     1.390035567046
N     -0.858008132456     1.536438840188     1.889501219192
C     -0.971629963926     2.851741042268     2.240154061417
C     -1.107097450436     3.189801837224     3.574247649175
C     -1.115463089346     2.218939375370     4.557337574726
C     -0.997553474730     0.903630774876     4.184509530854
C     -0.860976387258     0.592841130360     2.816509857964
H     -0.987533582328     3.623383317451     1.483898842136
H     -1.200843143330     4.229049357435     3.844988059716
H     -1.214343516032     2.491791131225     5.604721093570
H     -0.985959383232     0.101062131714     4.893636123780
O     -0.734743341497    -0.645244717996     2.438999333676
H     -2.202622913479    -1.577810006592     1.504800999812

