# STO-3G

title

0 1
C     -0.797541925715    -2.507220580758     1.252844969137
C      0.261117560545    -2.433357997377     2.200912807919
C      1.066620911479    -3.569726832669     2.443815282659
C      0.809017552096    -4.769920214618     1.760506882022
C     -0.253025193574    -4.849514550317     0.826910816464
C     -1.056021801005    -3.729343772804     0.577474456111
H     -1.494519804056    -1.679774303744     1.164583592807
H      0.403347463842    -1.516321654752     2.764297990287
H      1.868293630720    -3.514083198633     3.176072719068
H      1.418047158650    -5.649501563125     1.957755488659
H     -0.448809393738    -5.783356157423     0.305420018718
H     -1.868110950677    -3.782662196706    -0.141906989915
C      2.164199505452     0.437947801692    -0.877194771925
H      1.673223601932     1.406817360027    -0.872570428675
H      2.358638040870    -0.005491808234    -1.848344975795
C      2.752975730212    -0.093831296420     0.280076101986
H      3.376620963417    -0.970301972475     0.215276937409
C      2.823449318126     0.611815863458     1.573353123066
O      2.683571543903     1.862211211563     1.614516698295
O      3.242447343410    -0.115166569821     2.701245924821
C      3.235542745900     0.609098143616     3.939777805288
H      3.560894970754    -0.061475989433     4.763597189537
H      3.936233234794     1.474073956708     3.897426000959
H      2.210474286317     0.978810201826     4.174677283358
Pd     0.688947876544    -1.010801626181    -0.021931274922
C     -1.092133530904     1.170931196079     1.083317415304
O      0.001771528981     0.393381039340     1.230995493054
O     -1.548686927202     1.817804874964     2.049023707385
C     -1.805448136848     1.264684610705    -0.310353403145
H     -1.872044993327     2.343124826589    -0.499446818761
C     -3.212384662281     0.705021279510    -0.256604968928
H     -3.727706301194     0.895479230781    -1.221373967426
H     -3.185347177356    -0.387665921069    -0.074143331689
H     -3.789976813645     1.197239362881     0.554568361411
N     -1.134409593841     0.657214673178    -1.458130988797
C     -0.449745470585     1.444910795924    -2.333282935376
O     -0.107562208121     2.632184327082    -2.112916122259
C     -0.123308355711     0.826257078094    -3.635495124268
H      0.526157944611    -0.047120999439    -3.471897679715
H     -1.068604170194     0.519351139682    -4.115703963676
H      0.395203989439     1.572755142299    -4.265462275089
N      1.272303221873    -2.494031384421    -1.272717413102
C      2.345589077695    -3.335772174452    -1.196154511028
C      2.490707489906    -4.346681994651    -2.122430351799
C      1.555861486762    -4.532370167006    -3.118072498623
C      0.466007789496    -3.702738875359    -3.160561956935
C      0.320509021554    -2.681896761012    -2.192159141182
H      3.086631609622    -3.205470358460    -0.417785857518
H      3.344657478798    -5.001259156749    -2.060550123646
H      1.671943127577    -5.332121262105    -3.844793767991
H     -0.312139216324    -3.821332363892    -3.886909351485
O     -0.747650518101    -1.980233408748    -2.223001099056
H     -1.248112967219    -0.335691319221    -1.702596256769

