# STO-3G

title

0 1
C     -2.318794678042    -1.675980380350    -0.853291748946
C     -3.590824754501    -1.249573255063    -1.319442592756
C     -3.746967982102    -0.839384408332    -2.649749458150
C     -2.634880640713    -0.830861770442    -3.532298678758
C     -1.372399140471    -1.233774172916    -3.080491731920
C     -1.210445516782    -1.672996674563    -1.740187763546
H     -2.209222297756    -2.112606699225     0.132742497274
H     -4.441301203225    -1.251482449108    -0.642405018159
H     -4.724515238031    -0.526891873697    -3.008460833821
H     -2.766323265381    -0.509213007995    -4.562052278585
H     -0.516175321843    -1.211571170772    -3.746728299199
H     -0.275947424981    -2.110880490322    -1.411935668793
C     -1.413162812719     1.623793577145    -1.269010527803
H     -2.201768563964     1.134879389563    -1.829287878846
H     -0.445080225619     1.725954941181    -1.759175651032
C     -1.655176255022     2.243941988764    -0.051687598113
H     -0.863863317891     2.832546861322     0.382742206418
C     -2.949460581101     2.287036507697     0.645831453615
O     -3.846198625422     1.457263612544     0.336688877379
O     -3.074919142520     3.102719097912     1.782962493976
C     -4.325441514318     3.022457372007     2.480653341313
H     -4.305695744932     3.714945872963     3.349742649405
H     -5.168859676800     3.320388502792     1.817279670879
H     -4.499772284842     1.991266850924     2.862968918988
Pd    -0.820567905974     0.025567983465     0.237310811687
C      1.255575218219    -1.860250326799     1.354216215761
O     -0.043761047805    -1.647141836151     1.053969841159
O      1.583599684269    -2.714280262565     2.205521270536
C      2.397768368639    -1.141454725923     0.527511993069
H      2.897304066082    -1.982202563627     0.027996051288
C      3.433045615279    -0.503915148849     1.431001549611
H      4.234968913140    -0.041326716393     0.818386787188
H      2.969157065385     0.279897154303     2.060482849900
H      3.887916554728    -1.268780666326     2.095462313931
N      1.953957339279    -0.136772366853    -0.436729367630
C      1.904423456999    -0.194849627849    -1.792395809803
O      1.356618249411     0.692686000902    -2.500099893572
C      2.538053532433    -1.348605508422    -2.471060502940
H      3.610593041859    -1.357065142781    -2.211077774403
H      2.033430688828    -2.277114053647    -2.159372564315
H      2.428476169442    -1.218855441614    -3.564220451340
N     -0.284205739360     0.920682707413     1.980284870198
C     -0.835470824612     0.437860831607     3.133866832342
C     -0.403553523475     0.922488567889     4.348926498710
C      0.579429176256     1.885540269093     4.414164095574
C      1.137997890902     2.338335445250     3.247033024221
C      0.698983117021     1.825524820665     2.002036260757
H     -1.619380080183    -0.309315403151     3.088878972694
H     -0.845064517495     0.542595861143     5.255292761436
H      0.913769102042     2.270722284883     5.373680481694
H      1.914198755436     3.076360641135     3.236642377377
O      1.288763029820     2.243308343575     0.952290250340
H      1.680300977062     0.787656028789    -0.051133221086

