# STO-3G

title

0 1
C      1.070527827036     2.766483390878    -1.576049223501
C      2.434920024269     2.702992893757    -1.921556942120
C      2.977784299034     3.661122093102    -2.802805597959
C      2.163865752950     4.675462182215    -3.343820208764
C      0.800237199445     4.731952055407    -2.999301023852
C      0.250091689209     3.781219005948    -2.112916497520
H     -0.192314667357    -0.697661868463     0.797389871367
H      3.073394508699     1.916576134362    -1.524601622062
H      4.032161159000     3.606983685620    -3.065694783526
H      2.587203830994     5.411069339895    -4.023404931510
H      0.163918197181     5.512501587767    -3.411088163368
H     -0.806383409387     3.842803560564    -1.854845529950
C      1.238368944686     2.336917274712     1.316766413536
H      1.437089602234     1.533005259397     2.021286387782
H      2.105071701700     2.727743177250     0.797807391649
C     -0.000069348219     2.984834556138     1.254568202479
H     -0.110399811872     3.862217611855     0.635079027701
C     -1.063516652929     2.799649815883     2.254766961519
O     -2.199812391434     3.288686814811     2.022793973488
O     -0.761332844822     2.180160585293     3.478126234868
C     -1.825545978598     2.112976669455     4.437472485592
H     -1.455160006102     1.615227219915     5.359281956013
H     -2.182253616387     3.131683740523     4.709677994080
H     -2.674867969658     1.509047415643     4.048548609863
Pd     0.152727919941     1.416536702306    -0.426968377716
C      0.843630260528    -0.957050582202     2.736921790677
O      0.935924408580    -0.967116385809     1.387233672849
O      1.812958955539    -0.752093953524     3.492510232953
C     -0.590780844879    -1.241978437260     3.327316238308
H     -0.552885579229    -0.817024589746     4.337424930743
C     -0.810451894804    -2.734016661532     3.475358789317
H     -1.754406888396    -2.920598538269     4.029136301597
H     -0.891301928306    -3.190214522895     2.467624557622
H      0.030812004254    -3.199107348180     4.030409694933
N     -1.814613496103    -0.722558652392     2.700469377208
C     -2.020923817476    -0.284806988952     1.520642779864
O     -1.119242653496    -0.190853690845     0.476699106826
C     -3.387532776050     0.136677546449     1.197734608199
H     -4.051924832851    -0.725245569529     1.379444418325
H     -3.655852973771     0.970141755535     1.867165020040
H     -3.442303854532     0.452740711179     0.141758960372
N      0.732478714605    -0.015348356497    -1.867265618237
C      0.143792662287     0.011543504743    -3.102392237636
C      0.705658965040    -0.684911886094    -4.151929599960
C      1.857035139613    -1.417368692492    -3.967425319193
C      2.419300350516    -1.442564496218    -2.718791435366
C      1.810488937490    -0.729469934918    -1.662042140969
H     -0.755330267375     0.596233486290    -3.257677030743
H      0.239956861590    -0.649098728861    -5.122817820195
H      2.306119183977    -1.965662169598    -4.791224414198
H      3.308359275544    -2.002016128843    -2.506689548775
O      2.435749306700    -0.836286780449    -0.512765318584
H      1.890216016409    -0.808535367104     0.415651878903

