# STO-3G

title

0 1
C      1.070419998569     2.523053425187    -0.852330001270
C      2.465032582078     2.332214863904    -0.768830584091
C      3.337552225323     3.313128239717    -1.283298609589
C      2.825433010400     4.480121841598    -1.883461148955
C      1.432750481496     4.666669025473    -1.963738011817
C      0.551655147014     3.692666529762    -1.445786522647
H     -1.039740757393    -0.982795740626     0.700662762094
H      2.877668977514     1.437745318286    -0.306841372007
H      4.412312366637     3.158528223900    -1.212714734883
H      3.502323834342     5.232617601215    -2.280609593444
H      1.026947790644     5.566721069629    -2.420762987112
H     -0.521840580868     3.860255995257    -1.508080548127
C     -1.297929223213     2.424225245207     1.288209140247
H     -1.423399606967     3.436276175027     0.918592754769
H     -2.195736695415     1.827909177403     1.392293015525
C     -0.117770051416     2.011958174303     1.911297750789
H     -0.064310059582     1.043346387284     2.391218302880
C      1.021813010014     2.904293648033     2.194040239547
O      2.052670821101     2.425106288892     2.731646445893
O      0.938036608658     4.264828560915     1.846898134015
C      2.139548509891     5.028196968068     2.021013923538
H      1.958689273841     6.077284808753     1.703801287063
H      2.455123471413     5.033861297256     3.089034971184
H      2.962182712298     4.615582613990     1.393712487791
Pd    -0.239602856658     1.150520144507    -0.235110793190
C     -0.625412675021    -1.674356552591     2.795114166244
O     -0.145509509043    -1.313510121095     1.581985906977
O      0.086904741826    -1.876776733416     3.793661717410
C     -2.191291639638    -1.832123859472     2.883075193972
H     -2.422018153268    -1.618985801107     3.933347407762
C     -2.589474821692    -3.271553758078     2.620841478736
H     -3.672548908370    -3.404415885651     2.825602118703
H     -2.392787395754    -3.516553689780     1.557161009548
H     -2.013460570100    -3.959806067331     3.274340361731
N     -3.103354830546    -1.013952301756     2.073921545085
C     -2.954649396083    -0.472635913610     0.927984526723
O     -1.821932288795    -0.445939335785     0.132848617273
C     -4.143680619628     0.158040132213     0.343383128080
H     -4.904490881547    -0.632735412526     0.222644829799
H     -4.511714754210     0.918658944107     1.052227327761
H     -3.892162057524     0.601638831715    -0.635480098806
N      0.713285252196    -0.175580908926    -1.549384203417
C      0.567790025782     0.041143384860    -2.893098415245
C      1.365651045690    -0.631225096864    -3.794477020867
C      2.313036968378    -1.527920545184    -3.354525344005
C      2.432728234552    -1.738421640179    -2.007055041463
C      1.592037347572    -1.042451141487    -1.109620147456
H     -0.167639085948     0.754184236827    -3.246675764996
H      1.248871317536    -0.446044507877    -4.849332857526
H      2.948470290866    -2.057690969438    -4.059156907941
H      3.146394958091    -2.427064585138    -1.600435533362
O      1.805855847826    -1.334154835196     0.148928691517
H      1.040001082594    -1.263740052546     0.899821445986

