# STO-3G

title

0 1
C      0.273764643370     3.101740756208     0.026682297838
C      1.640499856352     3.220040182340    -0.301887938070
C      2.171251221047     4.477064588182    -0.657724388379
C      1.342872037588     5.615834997933    -0.694389008653
C     -0.020690087618     5.494426538328    -0.366752446869
C     -0.558109417368     4.240964570744    -0.002378578083
H     -0.654249980847    -0.904277713132     1.543442391164
H      2.293004209542     2.349526440297    -0.278072412413
H      3.227934944302     4.559421910411    -0.904430391170
H      1.755213919418     6.583027863105    -0.971705792268
H     -0.667368578611     6.369286513244    -0.386271583441
H     -1.612215273612     4.170693921911     0.259478380139
C     -1.361870604280     1.842487222476     2.521924735138
H     -1.764116394145     2.850407510068     2.530004983364
H     -2.075407732501     1.024924253298     2.551409716258
C     -0.004215124086     1.593836922038     2.726262349221
H      0.362135548982     0.579070511188     2.841297777618
C      0.989800334196     2.643573932824     3.014624222572
O      2.205856740120     2.328289308925     3.081118177998
O      0.571385496232     3.982576752904     3.120715860864
C      1.617759023823     4.957466648175     3.227370952273
H      1.170437044520     5.971952438395     3.295241906204
H      2.231571323912     4.782754955383     4.140023625670
H      2.274104131415     4.929845776629     2.327947459681
Pd    -0.542774909944     1.338219812405     0.469871008599
C      0.411926810503    -2.731285590914     2.060100497815
O      0.860741576791    -3.274626111856     3.077896254422
O      0.619129939530    -1.410092181273     1.758972648001
C     -0.482194754744    -3.535001132060     1.040598259676
H     -1.026764483272    -4.264060367491     1.656985129952
C      0.383260034244    -4.324816884483     0.081905379531
H     -0.253059734399    -5.003459588412    -0.523824589222
H      0.907097709250    -3.626433656579    -0.601666837177
H      1.127712555111    -4.931324263578     0.638900389960
N     -1.474897325856    -2.858477513007     0.205260113818
C     -1.903802657335    -1.663622553884     0.191883762714
O     -1.535778936169    -0.602106449527     1.023898628015
C     -2.947598866001    -1.316275386302    -0.776686645768
H     -3.196300933361    -2.213085467895    -1.374674668909
H     -3.831590455053    -0.979725040926    -0.211642814772
H     -2.560381784493    -0.519865614706    -1.432396998623
N      0.062196159260     0.670554412203    -1.402541374980
C     -0.359430341074     1.331405563527    -2.525852927822
C      0.103844566936     0.953447280089    -3.766801705554
C      1.005102868786    -0.078915073218    -3.891560674563
C      1.423522717536    -0.716675585465    -2.755008069355
C      0.926677602795    -0.313284985067    -1.495236924832
H     -1.068368647930     2.146550200252    -2.438580951283
H     -0.236190803301     1.478942601820    -4.644244322951
H      1.379074236087    -0.377537034036    -4.867406955921
H      2.130346556968    -1.522219081012    -2.786883535016
O      1.424794372243    -0.993519986527    -0.501559450654
H      1.073658740355    -1.093395504482     0.538732705606

