# STO-3G

title

0 1
C      1.636590898290     2.990737271747    -0.584869565859
C      2.881899534375     2.629073440252    -1.139803605444
C      3.644673220193     3.585135273964    -1.842180517412
C      3.164858055667     4.899657961682    -2.004008735598
C      1.917622608289     5.257182311637    -1.457899977315
C      1.152726870746     4.307613373813    -0.746846431296
H      0.151294758822    -0.380946672317     1.747328584830
H      3.258613777064     1.612926562232    -1.038987187251
H      4.605930603342     3.298123953855    -2.263734060063
H      3.754944078260     5.633326308829    -2.548108808741
H      1.539245872398     6.270255600679    -1.579181029441
H      0.190553129054     4.605482977685    -0.332706357662
C      1.727185630974     1.867547671200     2.238395553022
H      1.691826946267     0.880357541699     2.694464954912
H      2.684021697928     2.158720360507     1.819248916708
C      0.681387150213     2.785459435803     2.341959095725
H      0.820703616641     3.785098048697     1.959786799397
C     -0.517184704887     2.600704691832     3.181066534057
O     -0.510563675693     1.766032803504     4.123077784539
O     -1.597507060632     3.480413863633     2.990477591519
C     -2.714620257139     3.292888859056     3.871602882588
H     -3.507895094111     4.031827754467     3.627682370487
H     -3.141326452732     2.270029863815     3.758558579239
H     -2.411511805977     3.447257094182     4.932585909037
Pd     0.490626631400     1.656098778270     0.360242333412
C      0.703423905643    -2.467124854383     2.087811818452
O      1.145993540577    -1.235824015078     1.671540380224
O      1.376824427036    -3.237299137738     2.787689414884
C     -0.740425728683    -2.886241016158     1.602777624564
H     -1.204198345481    -3.358091186622     2.481306254346
C     -0.635887034090    -3.954635217453     0.534389006084
H     -1.645532039429    -4.354696595187     0.303832350726
H     -0.211017531806    -3.507432002528    -0.387350163144
H      0.010680309913    -4.789408847910     0.877247267232
N     -1.706471180616    -1.917735952675     1.082598309726
C     -1.706056550559    -0.648002274463     1.036021955593
O     -0.732382371849     0.230939649728     1.494204931398
C     -2.877006252643     0.018809506772     0.457835029103
H     -3.612823208046    -0.747692601677     0.150635442102
H     -3.307075899881     0.670209797583     1.235713629798
H     -2.545350522073     0.600807462249    -0.416836270390
N      0.260171972608     0.688522303745    -1.470736422566
C     -0.349557158297     1.345427816301    -2.506195928333
C     -0.391531276493     0.774810170240    -3.759574728420
C      0.187969127652    -0.452647805255    -3.987815857746
C      0.801634465208    -1.085761904437    -2.940463797966
C      0.820642390618    -0.479152074253    -1.665000910329
H     -0.806386736099     2.313423291769    -2.336251130364
H     -0.875382931560     1.299298674511    -4.567292651536
H      0.162946019576    -0.906014732756    -4.975301386054
H      1.276944774253    -2.039799128912    -3.056164803630
O      1.455585853585    -1.184074930231    -0.765420793839
H      1.378493961081    -1.102435946028     0.306373767202

