# STO-3G

title

0 1
C      1.038216416733     2.624747927295    -0.509659367807
C      2.436129040765     2.602003991641    -0.341702001818
C      3.205061762825     3.715800000390    -0.740925272462
C      2.585605447752     4.842629293096    -1.315214607280
C      1.188954367826     4.854393358358    -1.493021124320
C      0.411098001636     3.747223523885    -1.092008441453
H     -0.544149158045    -1.312784657040     0.466549056726
H      2.932181338544     1.727723055154     0.073732642991
H      4.284667886610     3.692666108270    -0.608667697765
H      3.184151575716     5.696236463852    -1.623743459968
H      0.701548731950     5.718810257857    -1.939020530037
H     -0.669411987577     3.780305805062    -1.225989845816
C      0.330925476386     1.263896575294     2.160788188313
H      1.310843140030     1.717309535328     2.267456918679
H      0.274201038809     0.208086249937     2.402570378557
C     -0.824028132591     2.017328654317     1.949269431805
H     -1.785736769910     1.531399462035     2.002733500236
C     -0.867868330186     3.488804942351     1.950271108833
O     -1.938002571207     4.056000624793     1.608208033551
O      0.293799953317     4.222034008882     2.243786955414
C      0.190136985979     5.646322679308     2.114489830033
H      1.170116878374     6.108474168817     2.361987831306
H     -0.069083158221     5.930771052521     1.069846608030
H     -0.575327135261     6.053717270307     2.812978170382
Pd    -0.114433223018     1.073042495881    -0.026441675527
C      0.509552274808    -2.474367667356     2.106567728029
O      0.588863405929    -1.797729020052     0.937601397658
O      1.497187861000    -2.819529522840     2.778896916282
C     -0.951092212860    -2.813526747517     2.585182278696
H     -0.861955073441    -2.913462124234     3.673045403821
C     -1.384306682146    -4.161938587899     2.043968650749
H     -2.353625087275    -4.454610359034     2.499442545329
H     -1.512615528835    -4.089868153322     0.944563338005
H     -0.626885752024    -4.938136473898     2.280963133086
N     -2.073820457978    -1.902868511291     2.332602974013
C     -2.292120543129    -1.067658217272     1.393788992633
O     -1.458717196841    -0.720296201918     0.341537725691
C     -3.614516173520    -0.432596961050     1.379176067430
H     -4.361487729762    -1.236861093962     1.263374385193
H     -3.762625514878     0.071396811257     2.349193826205
H     -3.682609879176     0.279550197160     0.538325060674
N      0.582271742297     0.195951001035    -1.804361848360
C      0.082614696631     0.666365628187    -2.988513618477
C      0.715725427638     0.366618813974    -4.176207763218
C      1.852044051752    -0.410751147731    -4.185032010872
C      2.325484127326    -0.884811230961    -2.990881518348
C      1.647652934284    -0.569095865739    -1.791963567068
H     -0.804665040823     1.288482591607    -2.988873438711
H      0.319251675807     0.750491995459    -5.101482142483
H      2.358150625005    -0.646576885303    -5.117320872131
H      3.199427217215    -1.501959321671    -2.930529490578
O      2.187123476859    -1.086997809750    -0.718201342034
H      1.572527288738    -1.376613555966     0.135020261759

