# STO-3G

title

0 1
C      1.263158802480     2.884037658320    -0.102953180800
C      2.599492406234     2.716405388151    -0.520492780045
C      3.312384006113     3.811571496821    -1.051239993054
C      2.694340776777     5.071211987979    -1.175896558956
C      1.357996774641     5.233711182216    -0.764594817912
C      0.638721082703     4.143422133655    -0.229173376207
H     -0.092925745182    -0.871521643079     1.671077578719
H      3.086668088114     1.746625054565    -0.444057193823
H      4.344959033727     3.675573817617    -1.365974524465
H      3.248191507248     5.913758551584    -1.582728048538
H      0.875312409138     6.205008819835    -0.849095573741
H     -0.389967746427     4.295035010004     0.092312648188
C      1.247758923079     1.412799196157     2.560498376704
H      2.133642584229     2.032621985147     2.464144486180
H      1.422984049514     0.340807193411     2.637545081819
C     -0.015122923065     1.964845324016     2.782093881893
H     -0.846573863502     1.305441232785     2.986301264780
C     -0.277411082899     3.396188861382     3.011846170776
O      0.671684641659     4.222123860855     2.987055399932
O     -1.612805402591     3.823552161075     3.099819348532
C     -1.806876829780     5.229864749580     3.309753167694
H     -2.895064512736     5.447435320671     3.372818271271
H     -1.332759217617     5.556578416113     4.263464555818
H     -1.381391967927     5.820370010384     2.466551115535
Pd     0.190360783036     1.342598521450     0.561940919713
C      0.678607564266    -2.898216033003     1.913081890200
O      1.274635409185    -3.588972715911     2.749732640936
O      1.049367561145    -1.617928248837     1.594167699782
C     -0.589476094042    -3.453988681148     1.158525329937
H     -1.100404611393    -4.089731585772     1.895471143062
C     -0.170538272299    -4.353170557952     0.014646712586
H     -1.062806922833    -4.860490726550    -0.408428755485
H      0.299353417256    -3.740548990153    -0.781294159970
H      0.547405842625    -5.123221163563     0.366784065392
N     -1.599637731748    -2.556217259024     0.598357649433
C     -1.769998961250    -1.300720893639     0.683877653925
O     -1.001309784249    -0.369248907771     1.384729939672
C     -2.929555907938    -0.714569898973     0.005486216283
H     -3.497343986517    -1.519255685075    -0.498128543065
H     -3.556088201874    -0.229109305159     0.771251781838
H     -2.564526320337     0.013834712089    -0.736345940748
N      0.221782921097     0.607340683354    -1.385869929307
C     -0.324881340498     1.353766515353    -2.395939858329
C     -0.213888141172     0.936256225637    -3.704016969693
C      0.459624784258    -0.223399746883    -4.012445501282
C      1.009889134334    -0.946726580541    -2.988681265747
C      0.873428459621    -0.498513100548    -1.655802836420
H     -0.857168910595     2.268757729736    -2.163744185915
H     -0.650045633491     1.530073397864    -4.490673352124
H      0.556181664942    -0.554499311680    -5.043145385074
H      1.553007978390    -1.853755361078    -3.166523740266
O      1.462767844417    -1.274114452665    -0.787373706019
H      1.310676001451    -1.336786871167     0.292941591678

