# STO-3G

title

0 1
C      1.940288985371     3.000760985333    -0.308102277060
C      3.208365176502     2.500737291819    -0.670767210385
C      4.193982305338     3.377077171693    -1.170474041020
C      3.916191025961     4.749792234416    -1.321927385375
C      2.646951158653     5.245757620763    -0.968921971057
C      1.658506113343     4.376015636686    -0.460135860286
H     -0.314056043865    -0.201021571800     1.574585747105
H      3.432432407486     1.440020046796    -0.576718006003
H      5.171028114422     2.983772738283    -1.443881843656
H      4.678061314677     5.421948286375    -1.709555576309
H      2.423241911182     6.304590637079    -1.083236200178
H      0.683139582610     4.780664338236    -0.193172735972
C      1.391331319893     1.818201459063     2.431204003439
H      1.192568100157     0.818551158307     2.812775185420
H      2.429749537949     2.037403826169     2.207506437720
C      0.426771529786     2.824455052573     2.396421749612
H      0.713676778072     3.823793711942     2.105284316147
C     -0.921878010973     2.705346430869     2.977689989830
O     -1.775581081633     3.585041589880     2.687679205895
O     -1.208105709518     1.673175474159     3.887007786420
C     -2.571194828256     1.574536790950     4.319418128116
H     -2.669750017452     0.719791664625     5.023160609911
H     -2.888090424650     2.501032287228     4.849375727316
H     -3.245726210160     1.387631985000     3.453804425448
Pd     0.497284614393     1.790148912230     0.349069322163
C     -0.067015415907    -2.313702366433     2.038286806313
O      0.314475032585    -3.054060671091     2.954464612805
O      0.613676759384    -1.190393083649     1.647647373074
C     -1.401294933733    -2.623023698349     1.254708752773
H     -2.072379470785    -3.062303102701     2.006114123494
C     -1.157795845879    -3.686705636502     0.204658654490
H     -2.125936996436    -4.010318578688    -0.231827501992
H     -0.526890452978    -3.265877414076    -0.604412991588
H     -0.653017820616    -4.568318602994     0.652316844322
N     -2.157272041906    -1.571500802627     0.572987853697
C     -2.016524141440    -0.309855970926     0.533019722843
O     -1.061260422098     0.470656919635     1.179669953267
C     -2.982518279663     0.469169258060    -0.246558504551
H     -3.727742114919    -0.218069619432    -0.688682385060
H     -3.475190621168     1.177143450995     0.440157507767
H     -2.435277674615     1.000064481262    -1.042211631487
N      0.487624066245     0.898235134948    -1.530555597013
C      0.181407536218     1.658645254751    -2.627707923476
C      0.274804801663     1.119221103257    -3.891835116288
C      0.687795809251    -0.181689247193    -4.067627362897
C      1.000114165855    -0.919662776350    -2.957580057606
C      0.887793846815    -0.342708826499    -1.672795390890
H     -0.143719689215     2.684585154545    -2.499437617249
H      0.029271558387     1.725776655307    -4.748335080329
H      0.768249865998    -0.611216287013    -5.062797141912
H      1.334457625057    -1.935675360143    -3.030589315360
O      1.235590898566    -1.151943269844    -0.710323143686
H      1.009900603561    -1.091944329056     0.359682678095

