# STO-3G

title

0 1
C      1.015710100128     2.607356622494    -0.567062304523
C      1.693488564571     3.516069176120     0.273026320695
C      2.158285481034     4.740863440279    -0.252349722998
C      1.951106536235     5.055863754006    -1.608690778189
C      1.281199477714     4.139357994037    -2.442604835777
C      0.815362627719     2.911609908286    -1.927250562488
H     -0.068105577690    -1.554165144471     0.460147784550
H      1.856126986315     3.292065632755     1.326430383313
H      2.676896236075     5.441234937788     0.398690971960
H      2.307856347603     6.000388873277    -2.011989328142
H      1.122878768403     4.370452855340    -3.493889475812
H      0.318740279531     2.204258569657    -2.587893391735
C     -1.661491277137     1.459717474869    -0.037805595080
H     -1.677578548333     2.285712505710    -0.739838486285
H     -2.046739093789     0.516405515786    -0.412764260932
C     -1.395299426908     1.641765588516     1.321128922788
H     -1.564694044659     0.817086143842     1.996829667619
C     -1.200150512662     2.948172945194     1.968859501299
O     -0.760365845946     2.967170941163     3.147864578280
O     -1.342156877734     4.127271039214     1.219184793802
C     -1.031774726275     5.350378257806     1.900441159001
H     -1.180688741153     6.204305491287     1.204624441987
H     -1.699809955883     5.495512049131     2.779464093973
H      0.030439155896     5.359824726549     2.233659230771
Pd     0.497342752105     0.868757041042     0.256669802321
C     -2.167228848266    -2.019531879832    -0.263502812812
O     -0.881699144753    -1.752278474322    -0.596319920641
O     -3.133481808962    -1.749273863956    -1.002088142003
C     -2.295673732073    -2.694924005006     1.154695475158
H     -1.795251055743    -3.673406159039     1.051594928039
C     -3.736018211420    -2.943447414101     1.533956641689
H     -3.779329145810    -3.513373002338     2.485542691898
H     -4.247623690566    -1.970314234128     1.678067391114
H     -4.253772284631    -3.523025267659     0.741702522696
N     -1.690298492205    -2.013243996292     2.313193525168
C     -0.573052013282    -1.399157382326     2.391603559582
O      0.322377527658    -1.113962138212     1.373010855698
C     -0.136050902110    -0.945895202116     3.717868896785
H      0.023029168415     0.144309292559     3.691771384227
H     -0.912683087011    -1.202667159852     4.462068367391
H      0.805198847941    -1.468411459927     3.959367987492
N      2.014493094604     0.023554447094    -0.930589217934
C      3.321689471176     0.323383145152    -0.657830818094
C      4.303397696894     0.048441403638    -1.586607962470
C      3.981229745851    -0.532969535878    -2.792446669762
C      2.668963467353    -0.838176401029    -3.038105019586
C      1.688639522696    -0.555415785153    -2.060804219957
H      3.581410180962     0.791809355788     0.284253419732
H      5.328029426076     0.297308732182    -1.365566645871
H      4.750022770965    -0.748234058667    -3.529693585417
H      2.354198440385    -1.299537634668    -3.952612925298
O      0.472024936371    -0.897482923140    -2.406027340509
H     -0.256729709376    -1.207351157293    -1.660718288378

