# STO-3G

title

0 1
C      1.898347195753     3.344080543586    -0.459542354425
C      3.022807806691     2.504554477328    -0.232630858532
C      3.959568367912     2.288371837623    -1.266353585701
C      3.791805292137     2.926169231436    -2.507195161197
C      2.677959602455     3.768236737396    -2.742463832415
C      1.730490498097     3.970610232679    -1.727888945611
H     -2.700039253663     0.508595383145     1.184322984170
H      3.184307894520     2.064103372004     0.748592351601
H      4.808848785795     1.632118177075    -1.096366324953
H      4.526403398278     2.770165557594    -3.294216607184
H      2.567952327940     4.263993461954    -3.703544126320
H      0.885685249703     4.636271238630    -1.885634677363
C     -1.410743112643     3.220076712965     0.963685002380
H     -1.979384680571     3.638379920723     1.795202857336
H     -1.739707610131     3.510453469586    -0.032921709252
C     -0.358806677550     2.392387043901     1.140157488140
H      1.265642585037     3.631030225030     0.374953365643
C      0.086979445457     1.869885445026     2.448678975428
O      1.275736395887     1.467547451168     2.543065423742
O     -0.765932880988     1.921294196662     3.564379001149
C     -0.339386344482     1.168084615227     4.708061204248
H     -1.103369486608     1.252994147677     5.511058475386
H     -0.239857997055     0.087734640350     4.453380251969
H      0.629253885597     1.551097510102     5.101052905408
Pd     0.509162871215     1.469120364027    -0.440580497137
C     -0.734003057164    -0.946838078517     0.732248604114
O     -0.991597899503     0.081397017523    -0.037213050146
O      0.404568943278    -1.511187253321     0.853106483447
C     -1.921246293523    -1.403681482201     1.597490155306
H     -1.541405529791    -1.838334848884     2.526369727579
C     -2.796625645807    -2.418646106238     0.894443329507
H     -3.613123742053    -2.733568597736     1.576886922639
H     -3.245060439573    -1.951863637435    -0.006561235812
H     -2.199246234142    -3.307071810043     0.603795886979
N     -2.727268421435    -0.218625376509     1.895921333378
C     -3.253942773236    -0.017163790177     3.130970943299
O     -3.126494176639    -0.799723540749     4.103785332942
C     -4.044722658352     1.221218898302     3.284831903372
H     -4.446757996405     1.256196240793     4.311899298010
H     -3.369067339401     2.070830343954     3.106000326438
H     -4.861392993500     1.200086544513     2.543528538951
N      1.295285106956     0.381710218001    -2.120202700538
C      1.136745570684     0.910411471409    -3.372599298207
C      1.807988456438     0.363876232494    -4.447364039314
C      2.638460394423    -0.720838412351    -4.272937335303
C      2.763414305685    -1.247313104548    -3.015093739614
C      2.047431567918    -0.669548587184    -1.942841655357
H      0.494014964308     1.770856678384    -3.515930482462
H      1.682925067026     0.794401506779    -5.426878645856
H      3.173502167699    -1.154192234437    -5.113690254180
H      3.379517904832    -2.100526306206    -2.812607387485
O      2.223172358397    -1.279596212504    -0.792821078235
H      1.468234019285    -1.247415837503    -0.041711483588

