# STO-3G

title

0 1
C     -0.123013563099     2.881425079423    -1.654757354412
C      0.942464542711     3.475452849465    -0.926330292057
C      2.231885303350     3.555726038786    -1.495884573526
C      2.454824314890     3.053611838663    -2.790606606430
C      1.398854989366     2.464413321580    -3.524747929419
C      0.116336671550     2.382010278874    -2.965326551995
H     -1.055525248718     0.445076354799     2.386547551601
H      0.752614278199     3.933484402731     0.040598127391
H      3.042004803122     4.022516266467    -0.942185425780
H      3.444503737398     3.123113856956    -3.236451442285
H      1.582829812306     2.075679498112    -4.523043027757
H     -0.701860445232     1.941978325209    -3.528811844649
C     -3.198459309008     0.919948890510    -0.213498431984
H     -4.224476349542     1.138947564065     0.087634587360
H     -3.064362189652     0.077289889077    -0.887208648892
C     -2.131109151767     1.616270097330     0.241662968410
H     -1.145809727573     2.944978296673    -1.288694709558
C     -2.261305202974     2.677021040143     1.267809800548
O     -1.449027293462     3.638238845498     1.241814838233
O     -3.250601039338     2.579735534239     2.261910448557
C     -3.258324390321     3.623085047767     3.246011840362
H     -4.078739518513     3.436283883664     3.972398129333
H     -2.297085204330     3.643944046210     3.807809923248
H     -3.434236555550     4.615038916564     2.771363623009
Pd    -0.316664618422     0.917240789606    -0.368314404123
C     -1.082925328087    -1.963261582657     0.774562974510
O     -1.106677306196    -1.044515830767    -0.203702050655
O     -1.546400233079    -3.114757871874     0.626777553495
C     -0.389274681152    -1.556724175975     2.112422521207
H      0.615662633349    -1.997153613822     2.079176945296
C     -1.116490275839    -2.104342781651     3.323007741070
H     -0.560811404409    -1.835255977633     4.245073331822
H     -2.132622994319    -1.663369209123     3.373143354859
H     -1.194252740718    -3.209853409175     3.260972479260
N     -0.216829312807    -0.117856293171     2.313952842682
C      1.019169455111     0.443808435244     2.442742400100
O      2.103843139664    -0.145011082169     2.228077563398
C      1.040705883879     1.852449716935     2.887322811255
H      2.090773390352     2.157360191132     3.043396952119
H      0.578460912526     2.471797210848     2.108670747534
H      0.478757928487     1.923634176697     3.835044564960
N      1.467948148267    -0.055018748872    -1.119204489611
C      2.732671112314     0.346169837331    -0.779774197961
C      3.825125682745    -0.176958848802    -1.444086531809
C      3.656667724775    -1.121602467453    -2.432804440606
C      2.383640184155    -1.532857561836    -2.728898567058
C      1.298169782413    -0.982368093596    -2.016234539405
H      2.874050495401     1.099665461727    -0.014536630862
H      4.814363935391     0.152557236909    -1.174140835908
H      4.513005902824    -1.540869291518    -2.953956633479
H      2.181950831620    -2.285567688237    -3.464145432332
O      0.113748386051    -1.487376353365    -2.334137123638
H     -0.575454211908    -1.371461840982    -1.567336248630

