# STO-3G

title

0 1
C      1.320563103805     3.403972834188     0.279209027518
C      2.641982112182     2.939017262264     0.048102746228
C      3.377674192951     3.422622201054    -1.045479438675
C      2.805053479337     4.382574195271    -1.911588389333
C      1.493613912592     4.848460961005    -1.694051365303
C      0.751036672020     4.361625088347    -0.598390614172
H     -0.273600198329    -3.304491134540     1.045776564541
H      3.083353237313     2.218946608695     0.732902904679
H      4.392226095459     3.071136101246    -1.217889214391
H      3.387020271579     4.771148099481    -2.744698932251
H      1.061226804732     5.594336520993    -2.356179556032
H     -0.241304734474     4.756949605940    -0.396875513314
C     -0.592064442890     1.741956838146     2.889698093511
H     -1.121632605971     2.001855113829     3.807730350211
H      0.245101748942     1.058489127374     3.003839845466
C     -1.025844423823     2.144654210597     1.680144597243
H      0.813674474130     3.169674914423     1.220294159170
C     -2.247612584766     2.931620079394     1.403121553790
O     -2.935205082747     3.391063195925     2.353965093883
O     -2.411590460470     3.407824111680     0.090304709572
C     -3.606271398868     4.165604371854    -0.147644246666
H     -3.646518135418     4.469427798788    -1.215608214887
H     -4.511090660152     3.553599858754     0.073090220478
H     -3.623979513034     5.086945987844     0.478321552497
Pd    -0.117974922401     1.513433313726    -0.000193330943
C     -2.033651487388    -0.723875431304     1.073843031824
O     -0.959870075913    -0.356046678879     0.358385007505
O     -3.091232889809    -0.072808525239     1.154481275393
C     -1.854792337276    -2.114941504112     1.767735703802
H     -2.456184011409    -2.826138579703     1.184377168831
C     -2.387998834290    -2.118852153485     3.186396464454
H     -2.213397952500    -3.112534379100     3.647960518422
H     -1.873354787791    -1.344110840000     3.789885243121
H     -3.477197157849    -1.906365181023     3.185427758414
N     -0.476153464652    -2.614391242978     1.758970659118
C      0.583532428000    -2.079008795043     2.430697050897
O      0.542014796786    -1.084628960093     3.190795083858
C      1.871145795624    -2.780847658150     2.232998181825
H      2.122416936797    -2.741570434515     1.159653767521
H      2.646402811987    -2.274186843497     2.832310651868
H      1.744805763698    -3.825558369638     2.565082666772
N      0.892763707156     0.631473818148    -1.751275722371
C      1.255802585966     1.410453301819    -2.817300394059
C      2.080354226129     0.901301243908    -3.800869311631
C      2.536970969433    -0.396517176092    -3.728676018553
C      2.138364276098    -1.165760045112    -2.667944055137
C      1.286210104947    -0.608524734233    -1.690701980392
H      0.890848706357     2.425873813305    -2.891020927657
H      2.364662877405     1.527602880591    -4.630266503116
H      3.185689258885    -0.803311702222    -4.499913165417
H      2.435580652367    -2.189789205416    -2.560469754656
O      0.934850495269    -1.445165911299    -0.727916951865
H      0.131311064539    -1.084648804556    -0.136083757860

