# STO-3G

title

0 1
C      1.421556986528     3.127509385860     0.667057967406
C      2.719044683743     2.630224845988     0.351023856498
C      3.366886178361     3.046810411827    -0.816059667224
C      2.741043922336     3.975465224721    -1.689403217765
C      1.458805653530     4.462040084500    -1.401689375041
C      0.787548494817     4.037294472368    -0.224299833244
H     -0.089188755852    -3.227341580180     1.061172496252
H      3.205053288892     1.940210696794     1.036104292319
H      4.361335833749     2.672637535741    -1.048786992906
H      3.268754995709     4.317955653918    -2.576922487555
H      0.984950048115     5.188149451820    -2.057698463306
H     -0.141653861586     4.521004338007     0.061561084672
C     -0.888366483941     1.751345390091     2.817841483075
H     -1.467170309241     2.046407438944     3.694457916935
H     -0.097911333473     1.024206084071     2.988069732342
C     -1.213551665037     2.179179475955     1.583569822538
H      0.984034073205     2.954145729257     1.644282911724
C     -2.337317154947     3.079627852222     1.241967046727
O     -2.881057594356     3.774581885140     2.141446480913
O     -2.490535620674     3.407944287991    -0.116836810440
C     -3.564284732899     4.310037738727    -0.419386819628
H     -3.609003683275     4.478001443334    -1.516888902984
H     -4.541002095210     3.883372096606    -0.094528875686
H     -3.408886186225     5.294613287260     0.078054666206
Pd    -0.226665922723     1.590545823970    -0.061225461018
C     -2.014450402042    -0.766575998722     1.030879743023
O     -0.973271799375    -0.329794977128     0.307015275391
O     -3.128153097109    -0.213927128636     1.087201294275
C     -1.719332517281    -2.109042451919     1.782122735270
H     -2.289837616717    -2.884008502036     1.251538248922
C     -2.211103603006    -2.080950673393     3.215595263112
H     -1.963988909999    -3.041166287446     3.713505416758
H     -1.727048107008    -1.251806524685     3.769389023956
H     -3.310800017644    -1.933790185756     3.239183639015
N     -0.312162429027    -2.522761337309     1.753848689949
C      0.734286890540    -1.915456659949     2.382737911480
O      0.664496189697    -0.898516504772     3.111113691499
C      2.049122000620    -2.563645049208     2.181005318826
H      2.276827799285    -2.549877713269     1.101761273107
H      2.812060889706    -2.001109968130     2.745207034436
H      1.978947893588    -3.600919934667     2.550791031447
N      0.778342916565     0.728062396471    -1.835431147984
C      1.024682930078     1.482245673370    -2.951188827146
C      1.828479813979     0.989328860450    -3.960302492827
C      2.381550897920    -0.268703604379    -3.862205843944
C      2.094418175172    -1.018148831269    -2.752579100180
C      1.256009288368    -0.480043819449    -1.752774451358
H      0.583250068225     2.465807339162    -3.045355264274
H      2.020426194873     1.595827944306    -4.829826272157
H      3.015089344942    -0.662705442060    -4.652428508287
H      2.465558062819    -2.015075719535    -2.623696701144
O      1.003045944937    -1.302484517871    -0.747203212845
H      0.178865838841    -0.987160266949    -0.158322329539

