# STO-3G

title

0 1
C      1.764587044985     3.005594960558     0.730938860076
C      2.942152245366     2.246637152318     0.493188699949
C      3.668799877978     2.432426878738    -0.693608173703
C      3.234406259850     3.380052935692    -1.647174371702
C      2.069895150537     4.139275750674    -1.425060909761
C      1.334307184385     3.957707937028    -0.235995696412
H     -1.423508552674    -2.034597236837     2.297054617655
H      3.273670923135     1.523734416537     1.233191670547
H      4.559580016912     1.839301679999    -0.882690758750
H      3.806799336572     3.521712319278    -2.561432943718
H      1.745773214956     4.872566161432    -2.158858087624
H      0.465907796975     4.578662516609    -0.030814874182
C     -0.424800527635     1.647245977635     3.115746779116
H     -0.944978713602     1.850030032606     4.051563493509
H      0.471507277258     1.033100393256     3.183057772448
C     -0.834096074876     2.130058165442     1.922671368578
H      1.273174099613     2.982744163386     1.698474938887
C     -2.010395839230     3.000647946704     1.710645291844
O     -1.933075677265     3.877549228463     0.808821356653
O     -3.064036861860     2.996561000878     2.641846177163
C     -4.182028632955     3.834732034727     2.319930828867
H     -4.956215596446     3.733606415108     3.110558060280
H     -3.875124232281     4.903722441665     2.266599444302
H     -4.636633898454     3.528344930366     1.350141266087
Pd     0.001137176598     1.569628567813     0.182984414763
C     -2.205008630067    -0.569512315825     0.145617493043
O     -1.859159488589     0.683030267293    -0.114819768323
O     -3.388192186353    -0.953857295237     0.336269760679
C     -1.024025466333    -1.601368942888     0.267187502255
H     -0.157542128045    -1.227675796925    -0.272744886250
C     -1.379087112261    -2.974642347255    -0.259440160524
H     -0.507763415112    -3.652682629557    -0.150383729705
H     -2.230238184340    -3.385257089640     0.322994240993
H     -1.663324063897    -2.910011248088    -1.329717436593
N     -0.665861876311    -1.747421129944     1.686734231077
C      0.514414414737    -1.404512327540     2.213472632401
O      1.474894721747    -0.853388718072     1.594817475019
C      0.694073509985    -1.718747086637     3.643748533189
H      1.693238629704    -1.380753774864     3.969923019520
H     -0.102406962574    -1.209831743144     4.212882556686
H      0.603389126559    -2.813048351703     3.762597942862
N      0.761540280494     0.815128667505    -1.680634273865
C      0.217638987509     1.404956275625    -2.790095297868
C      0.650512674577     1.037987192221    -4.048212858133
C      1.625452770212     0.076182444481    -4.198385205529
C      2.142073293248    -0.506476096133    -3.070776418426
C      1.668952090264    -0.103947354185    -1.803745485760
H     -0.545486908946     2.166476146709    -2.676255846543
H      0.219539570677     1.510485192091    -4.915631529243
H      1.971469220104    -0.216946307006    -5.185989297407
H      2.896525670661    -1.266132188157    -3.116452100840
O      2.229874417876    -0.753834219634    -0.797340696392
H      1.861407938992    -0.667173449060     0.163616397152

