# STO-3G

title

0 1
C      0.958020974622     2.344118846872    -0.422239155416
C      2.346943734429     2.099679676256    -0.421672161696
C      3.227695466147     3.059209196676    -0.961348467202
C      2.729265443695     4.257251035958    -1.510744422901
C      1.342615092029     4.496702799872    -1.512275365719
C      0.454103178482     3.544612139692    -0.965441093748
H     -1.021835329970    -2.763579674566     0.790219716267
H      2.747814103196     1.175193051529    -0.010639740115
H      4.297950929362     2.862956043755    -0.953174551187
H      3.412813047876     4.991735435242    -1.929742128041
H      0.947651024046     5.420889772126    -1.929155063659
H     -0.613480120481     3.756449134599    -0.963439456537
C     -1.319760420832     2.322387330563     1.802523133755
H     -1.499527168504     3.298916520688     1.364261458224
H     -2.183979513766     1.679999788142     1.924679733542
C     -0.091816358730     2.005104523037     2.380318049995
H      0.051783791099     1.079368257046     2.922623141191
C      1.013788219301     2.968765077863     2.544761035112
O      2.088329506176     2.578474418030     3.068598365999
O      0.835428403069     4.304809309109     2.142416079699
C      2.001693055376     5.136566126318     2.212256057953
H      1.747966774001     6.158001034719     1.857216852012
H      2.373868889271     5.211612472481     3.259243345618
H      2.810356592410     4.735181167514     1.559694585377
Pd    -0.348370178516     0.980843428654     0.267631791905
C     -0.245131666792    -1.543912526055     2.627514763355
O      0.102562370331    -2.311684584205     1.574150973244
O      0.487268662666    -1.258035683619     3.592950947437
C     -1.673393435983    -0.933395628474     2.477474489337
H     -1.689001727646    -0.038578651648     3.103959216504
C     -2.770391094818    -1.845015037891     3.005751750584
H     -3.760494631242    -1.369131322336     2.849982752040
H     -2.753186567420    -2.823642167948     2.483820305071
H     -2.622274283515    -2.023598092399     4.091227932913
N     -1.994511026899    -0.504266508576     1.087407091306
C     -2.183253178043    -1.371575240036     0.124121632565
O     -1.853480883559    -2.662568863985     0.127909493775
C     -2.860108188445    -0.902865698030    -1.089574254223
H     -3.808004724555    -1.461522007016    -1.168478597667
H     -3.057183967672     0.179154510106    -1.014986182814
H     -2.217049454122    -1.141980542051    -1.953178710630
N      0.317240890288    -0.129644367551    -1.396783585276
C      0.014426428261     0.406563438032    -2.621931691386
C      0.624147991718    -0.068266493458    -3.761515428149
C      1.557021742026    -1.075852969303    -3.684630589864
C      1.852335331865    -1.592841273336    -2.453308746323
C      1.199623198930    -1.097288314459    -1.301094905477
H     -0.715145051277     1.204562974303    -2.694271538633
H      0.377077485468     0.362888565482    -4.717612771987
H      2.048908123015    -1.450352415215    -4.578423622292
H      2.571612000354    -2.377835953867    -2.326354590694
O      1.595355161838    -1.665755946477    -0.197134831231
H      0.981068117138    -1.885682260465     0.686549645493

