# STO-3G

title

0 1
C     -0.407362769237    -1.093359700994    -2.211884612490
C     -0.435985734543    -0.855140416803    -3.600210651324
C     -0.450576348691    -1.935200626133    -4.504777448275
C     -0.441188400678    -3.257962795552    -4.018635426231
C     -0.420429301953    -3.496234470254    -2.629259184658
C     -0.402839312508    -2.415618878410    -1.724707542699
H     -0.412445345282    -0.268594953631    -1.503824376713
H     -0.465702133900     0.165666478526    -3.977700746007
H     -0.481897324613    -1.746773736451    -5.575852724204
H     -0.461057916407    -4.093682384508    -4.714755613191
H     -0.420861607929    -4.516377839967    -2.251721547020
H     -0.385059899667    -2.578378292871    -0.651375083061
C      3.204484329369     0.664449037775     0.528645217964
H      4.031044319339     1.228523723475     0.105425305201
H      2.924058403413     0.889180615019     1.552125602642
C      2.704705042088    -0.500088307136    -0.072498240641
H      1.956638337354    -1.086488398297     0.442144179310
C      3.239229816488    -1.104655821005    -1.304793840060
O      4.195149803693    -0.548604394086    -1.909989285532
O      2.755677624566    -2.357835187154    -1.707216129123
C      3.138000549630    -2.785676164377    -3.020555308800
H      2.678750740183    -3.775947823871    -3.227998146763
H      2.765279093714    -2.070793362246    -3.788773319134
H      4.243673810477    -2.887308221637    -3.101295555015
Pd     1.394374700071     1.334579683450    -0.543264670830
C     -1.317476068578     3.212102517816     1.452261107928
O     -1.798150757547     3.036173046733     0.192696549201
O     -1.997570034555     3.745515153472     2.341248714097
C      0.122076160794     2.672629699361     1.771423762771
H      0.178651620708     2.669702771485     2.868864232947
C      1.195698747891     3.618599737533     1.275175982936
H      2.197484050713     3.243452421704     1.565447067596
H      1.145479684158     3.725531938806     0.173887479788
H      1.053693488297     4.621202680840     1.731501871801
N      0.401857157569     1.337578058245     1.212053245600
C     -0.136244526696     0.172529918594     1.643956361914
O      0.068173721756    -0.943859768463     1.083279045013
C     -0.989917928238     0.182379799041     2.857375945020
H     -1.323506975976    -0.852923176544     3.055757946997
H     -0.392066249167     0.539945840839     3.710921864106
H     -1.876684955003     0.814484324147     2.678139577446
N      1.872044997374     1.818695152174    -2.562498548879
C      2.740582501742     1.739783086827    -3.615098517930
C      2.384218760892     2.286820222836    -4.836555818620
C      1.163510964222     2.913918867638    -5.005774236201
C      0.308739072030     2.986389168732    -3.934565758023
C      0.712442125339     2.413316732665    -2.714351736282
H      3.707614243572     1.270886983015    -3.496313227859
H      3.074080477311     2.222272068164    -5.662086231000
H      0.887582655292     3.341360167995    -5.966137805649
H     -0.654195292130     3.452189721097    -3.990820300172
O     -0.081768453100     2.447263259183    -1.672688019390
H     -1.164152434632     2.743549279577    -0.522963010826

