# STO-3G

title

0 1
C     -0.311268223009     3.517298041815    -1.273749722289
C      0.738152993837     3.790147812157    -2.175772120853
C      0.755757915146     5.011062487051    -2.878983713082
C     -0.266604179318     5.960577807048    -2.681095271630
C     -1.310854991403     5.689866565798    -1.774872588616
C     -1.332026297871     4.468987313205    -1.071857926070
H     -0.329382021799     2.577284155716    -0.723628605149
H      1.528960879400     3.059479559294    -2.309128566560
H      1.565219661872     5.220578782497    -3.574582642848
H     -0.249197585509     6.902413207477    -3.225132074239
H     -2.100694211478     6.420501696650    -1.616133443951
H     -2.139394981540     4.263312637103    -0.371713391977
C     -1.368290254215    -0.275195056600    -1.214049427260
H     -0.876820999577     0.686947310508    -1.306423730714
H     -1.018130706341    -1.050810060712    -1.888133720571
C     -2.544194605663    -0.425469954104    -0.460160226097
H     -3.087731291435    -1.354765118710    -0.516633722285
C     -3.297547839699     0.672103429905     0.170995220138
O     -2.884327859162     1.858693357752     0.068753178215
O     -4.562312454256     0.385019506538     0.712698002524
C     -5.191537453200     1.462393025391     1.419568112860
H     -6.168782657715     1.118622779280     1.820722564719
H     -4.559453303868     1.788694331276     2.277488288615
H     -5.376363879567     2.327294568210     0.742918125238
Pd    -0.710730310010    -1.218709177853     0.684627548809
C      1.938613642726     0.377641108217    -0.440038116260
O      1.938306231593    -0.960730593686    -0.717561236234
O      2.286610951276     1.188087703723    -1.309997364252
C      1.492103666775     0.854756481478     0.978571912369
H      1.647867108088     1.941029401341     0.946686678177
C      2.358189544995     0.271949128748     2.083495977198
H      2.164522600287     0.797843262685     3.038864886655
H      2.124482916705    -0.800458066959     2.236722342780
H      3.433767216293     0.383703120111     1.832258838516
N      0.078987970266     0.534439425618     1.262670586740
C     -0.731237793632     1.143742006763     2.157465531729
O     -1.802413378186     0.592047323862     2.560624682037
C     -0.409540112399     2.513224184421     2.620980793580
H      0.544371473361     2.500616826844     3.168408476383
H     -0.366782727783     3.171201901746     1.736487333813
H     -1.219623934461     2.855086088867     3.290684316464
N     -1.047201591619    -3.237595685262     0.250808579040
C     -1.956798269292    -4.164816706202    -0.170661254116
C     -1.595947729100    -5.498997263261    -0.224096502018
C     -0.328988489639    -5.906895893991     0.151616710019
C      0.566154096739    -4.959824010347     0.583020732066
C      0.157728718638    -3.612604977271     0.625128685582
H     -2.951204835762    -3.855253298447    -0.469483506830
H     -2.315317966387    -6.227483359826    -0.561239045513
H     -0.049391172366    -6.956384386476     0.110904735547
H      1.558969143617    -5.204469065615     0.901372082936
O      0.986346368327    -2.688118849359     1.053131297444
H      1.687119633471    -1.604235582164     0.012981932029

