# STO-3G

title

0 1
C     -2.405540591803     0.850283110550    -1.206449598883
C     -2.279534011276     1.905764982946    -2.159828533168
C     -2.819772928575     3.164252609303    -1.893878812478
C     -3.456149552836     3.428735105118    -0.645304376575
C     -3.558989044005     2.424488259055     0.317571092057
C     -3.060884666148     1.115634016677     0.041356600328
H     -2.178082832223    -0.176281559766    -1.492620837609
H     -1.811129673251     1.702582809480    -3.118844491009
H     -2.770443800398     3.947551378295    -2.647163008056
H     -3.879523295767     4.412401134214    -0.454954781140
H     -4.063379728142     2.612465612569     1.261968087786
H     -3.327551334052     0.281914718374     0.684722175945
C      1.417859452307    -0.007749001116    -1.881431076121
H      2.111276850735    -0.624488744530    -1.319309579811
H      1.415856807194     1.047980998397    -1.623018637727
C      0.587052600629    -0.496875949137    -2.830310149665
H     -0.094297627443     0.165450585519    -3.345858959924
C      0.499166218067    -1.909838238616    -3.233638627928
O      1.262429802301    -2.768252187817    -2.707455180630
O     -0.336193468621    -2.244309224332    -4.314154234042
C     -0.484809919489    -3.646257073660    -4.574487272567
H     -1.176173496688    -3.789127415848    -5.432242462400
H      0.494427684932    -4.108112621954    -4.834227901149
H     -0.919792017859    -4.163772647211    -3.688987183141
Pd    -0.771623206289     0.632345122337     0.494520711003
C     -1.227985547053    -2.206541450321    -0.060832521138
O     -1.657216764683    -2.325349158709    -1.232621979856
O     -1.585930770789    -1.196911902522     0.766160252486
C     -0.138047093427    -3.157700487002     0.526019515913
H      0.073144807907    -3.932957135485    -0.229719380919
C     -0.568175902175    -3.809582110995     1.822667751006
H      0.241072755982    -4.470444115671     2.192816284250
H     -0.761417102987    -3.023070360304     2.582703501325
H     -1.489091304851    -4.406833053303     1.663301305236
N      0.937138678736    -2.241962093842     0.816133789296
C      2.196201485171    -2.342333019706     0.647430303565
O      3.020430372224    -1.284487048770     0.851344063602
C      2.865661152578    -3.594747706524     0.254141873097
H      3.956176243148    -3.424809493646     0.215865433821
H      2.622433207737    -4.360886376729     1.007601086396
H      2.497805688175    -3.887413484712    -0.744560631414
N      0.258742724554     2.409229373048     0.460657421042
C      0.129510396591     3.711684681388     0.074909774424
C      1.210594077732     4.567061977954     0.191899900483
C      2.415799235347     4.122046096937     0.702955591873
C      2.520515046104     2.811348772418     1.095813208624
C      1.394974151854     1.972612810596     0.967003371225
H     -0.806203970658     4.075921952430    -0.320704786474
H      1.105574263787     5.594217785816    -0.116402551087
H      3.262138557465     4.797535454088     0.795286791382
H      3.419582249145     2.401032038098     1.508462038746
O      1.450796361662     0.728423115879     1.322601561644
H      2.473770612803    -0.464352617288     1.092702190383

