# STO-3G

title

0 1
C     -2.954375607920    -1.960532405516    -0.584759963676
C     -3.719523568273    -1.431433635679    -1.663197196364
C     -3.426040197047    -1.801052797068    -2.980932435599
C     -2.371612368998    -2.706541312944    -3.246850956532
C     -1.619303723056    -3.256129807305    -2.195773891602
C     -1.915923886819    -2.902692552736    -0.861793721513
H     -3.297329101063    -1.820566224153     0.438265669942
H     -4.524659344232    -0.738923419778    -1.454508429909
H     -4.005197258799    -1.390669622131    -3.803575268202
H     -2.147272588767    -2.983229492832    -4.274777727535
H     -0.819722937181    -3.962097809903    -2.402320962233
H     -1.396734604988    -3.371800114684    -0.033041020043
C     -2.412183799247     2.395759325474     1.307283001751
H     -2.054135032069     2.912706165858     2.194904423670
H     -1.959409506313     2.686710242930     0.361952764469
C     -3.342709585202     1.412348270802     1.328352264458
H     -3.621126154795     0.961797012545     0.386142430005
C     -3.997492042686     0.882500088628     2.534403218554
O     -3.696940281076     1.342522739658     3.669793823775
O     -4.877045705980    -0.204586711732     2.394102003506
C     -5.358587060148    -0.782902918429     3.615162346957
H     -6.037717888306    -1.630121756773     3.378487707410
H     -4.513520941142    -1.177807930202     4.224593766917
H     -5.928433600529    -0.034593046961     4.211314197108
Pd    -1.169288029339    -0.575752401738     0.138516716842
C     -0.253991487332    -1.566810449344     2.675114631999
O     -0.084551336769    -2.321857437819     3.647232260556
O     -1.145798520785    -1.819969419004     1.696431239104
C      0.529134999972    -0.226521812950     2.538707443661
H      1.564547659702    -0.441665034415     2.835312770570
C     -0.041573576725     0.810187154540     3.485177982852
H      0.437489152327     1.796387587926     3.334557226788
H     -1.129214231096     0.913747762134     3.311326698077
H      0.114895371929     0.489986503100     4.536891618235
N      0.424708741909     0.288896458310     1.157557835893
C      1.296125277250     1.036067342610     0.534165917910
O      1.126794591651     1.486975166522    -0.690515914319
C      2.581952771912     1.407452433952     1.158102316459
H      2.387007638351     1.969683197130     2.084595134710
H      3.152470540065     0.484613443389     1.355803861017
H      3.156385144370     2.045065274323     0.459911264143
N     -3.171662725505     1.507113337552    -1.821943223424
C     -4.016339386046     2.334259911666    -2.511445208906
C     -3.521943012992     3.151835111248    -3.510654365046
C     -2.179842051732     3.136709366641    -3.824184642781
C     -1.356535375085     2.299275199189    -3.117097761899
C     -1.917211662183     1.481429928443    -2.103549346583
H     -5.072282764292     2.347525193656    -2.268395516039
H     -4.195313730628     3.798920860538    -4.047865861001
H     -1.785178183275     3.771237754238    -4.613228302051
H     -0.308116748068     2.231111847918    -3.324946409623
O     -1.022063213518     0.704531793963    -1.476074050835
H      0.190189650902     1.193442623677    -1.153668637103

