# STO-3G

title

0 1
C      1.691116541600    -2.051096982455    -0.078599587140
C      1.432000061503    -2.317434709664    -1.453896555895
C      2.325857012785    -1.876640002806    -2.431996742047
C      3.497527943271    -1.164727769906    -2.062755586828
C      3.776107661932    -0.904757688600    -0.716607552654
C      2.880226680715    -1.352598405985     0.289597811921
H      1.069134767071    -2.511221419558     0.681392657815
H      0.533636323144    -2.860341422815    -1.729603249508
H      2.124318245877    -2.072846578275    -3.482259952371
H      4.181769166432    -0.820989801085    -2.834799847970
H      4.678881641592    -0.370648307892    -0.433314091295
H      3.132261884041    -1.245194162952     1.340498103632
C     -1.276917014702    -2.771327560578     1.827659496424
H     -1.556237942937    -3.543504601437     2.541049169404
H     -0.552254000651    -2.046386227916     2.185036999805
C     -1.771329908967    -2.703928230275     0.567558891345
H     -1.461606459772    -1.902744206604    -0.093662492738
C     -2.730365190755    -3.670063834516     0.001254241913
O     -3.182017191499    -4.606447581407     0.715021610278
O     -3.118809074110    -3.529550409007    -1.343546867641
C     -4.030210735633    -4.520129481537    -1.839687043827
H     -4.259283311326    -4.309945637280    -2.906413396778
H     -3.581509055413    -5.537596524313    -1.774841080979
H     -4.985286968505    -4.501431165110    -1.267005692238
Pd     0.872659018586     0.073338421480     0.593895912587
C      0.277980628350     0.130278603083     3.389311122757
O      0.214461017775    -0.170919747659     4.592485285208
O      1.074198265846    -0.507153755669     2.503996871745
C     -0.610392437428     1.270422803901     2.790130852849
H     -0.603178652105     2.088375750392     3.523093090446
C     -2.037099261507     0.806610101642     2.583212668905
H     -2.670649936775     1.658239971702     2.264270573831
H     -2.071295623564     0.031898919764     1.789589279574
H     -2.446890703276     0.386982815480     3.526174370203
N     -0.085683777306     1.656201670886     1.470382610711
C     -0.061760678403     2.836129453632     0.925046997734
O      0.404781871082     3.069411156391    -0.289746255413
C     -0.548351899491     4.024227741334     1.648177315676
H     -0.451219498075     4.910242367111     0.993719884999
H     -1.609580326129     3.869947284424     1.903073807464
H      0.069458069047     4.167059474525     2.551788242938
N     -1.335334954604    -0.238466253389    -1.674007398895
C     -2.394255841199    -0.481886073504    -2.509752747297
C     -2.424244761638     0.078021294708    -3.774552440613
C     -1.391941691143     0.882460323326    -4.207747456790
C     -0.349548965378     1.117283055225    -3.350377693010
C     -0.369972682768     0.517004830505    -2.068747234622
H     -3.215262605406    -1.101912745488    -2.173811370934
H     -3.261337492229    -0.122592450756    -4.422124137007
H     -1.406125945894     1.320951273835    -5.201903245502
H      0.489215063840     1.725513671042    -3.621267451540
O      0.693845827374     0.823747137509    -1.305822415718
H      0.624393190295     2.191912802574    -0.834265740430

