# STO-3G

title

0 1
C      0.408954215236    -2.545828689304     0.990223602089
C      1.774034242295    -2.750787787823     0.646244755833
C      2.779972929840    -2.373794978058     1.535942386253
C      2.450652152409    -1.778076450330     2.784161888955
C      1.116536495024    -1.567704329722     3.138852668311
C      0.078578723444    -1.956747335834     2.246813399437
H     -0.402294742682    -2.953468528226     0.397884355529
H      2.028192631681    -3.197614370564    -0.312001679279
H      3.823818652172    -2.523844776045     1.273252945617
H      3.247401591637    -1.482416565533     3.462252524579
H      0.863834361094    -1.122476704681     4.097774678020
H     -0.963357637422    -1.958329143310     2.553213960054
C     -0.678507844941    -2.442643877411    -2.260990294484
H      0.076270749124    -3.188325627824    -2.026536690046
H     -1.710511475376    -2.723427584381    -2.062794066487
C     -0.381572370040    -1.205115240494    -2.715209886830
H     -1.180926583539    -0.499979572849    -2.895082319168
C      0.978085438319    -0.687824639417    -2.927825807365
O      1.116778222594     0.514780882230    -3.282630207522
O      2.087123047866    -1.526111591394    -2.712962653430
C      3.370714902230    -0.886663834508    -2.743472321108
H      4.163574442149    -1.642517232619    -2.559628737392
H      3.558957534906    -0.415242527394    -3.734204651815
H      3.447012435831    -0.114651798948    -1.944453928890
Pd    -0.314761368211    -0.307381206311     0.481056496326
C      1.883752442315     1.461923295843     0.010639445771
O      3.051934319392     1.845265894324    -0.181689242820
O      1.587200271260     0.272312941782     0.569929768672
C      0.652098923576     2.347051337323    -0.335299790893
H      0.932115539954     2.951819157351    -1.207802976972
C      0.314925012360     3.268623930254     0.819326025532
H     -0.548096223498     3.912494180235     0.557090617929
H      0.050937720828     2.663766014738     1.711760330354
H      1.186544944537     3.913492499342     1.059247744574
N     -0.523463555453     1.480889314480    -0.562234758091
C     -1.505801029537     1.717756040169    -1.389939960303
O     -2.566357746002     0.943448876168    -1.493601259278
C     -1.472742505208     2.862437027321    -2.320006941421
H     -1.396502435040     3.795779079377    -1.739520521987
H     -0.606235372716     2.728983446851    -2.992807142855
H     -2.400752830383     2.874310794547    -2.921121737467
N     -2.642322748147    -2.913928243396     0.986920269446
C     -3.477910597437    -3.976311065325     1.198532596988
C     -4.792709938176    -3.916515714666     0.775283416981
C     -5.273787832248    -2.787801005165     0.147055901448
C     -4.416241981376    -1.735504646613    -0.047329782650
C     -3.077442293962    -1.850628111111     0.406798750124
H     -3.103049906836    -4.865427765317     1.691986561345
H     -5.442414427581    -4.759317793831     0.944610250801
H     -6.307708570316    -2.732974527542    -0.183343426591
H     -4.738764115550    -0.829660294112    -0.519046393767
O     -2.318115470250    -0.774525630093     0.173262743994
H     -2.575013616350     0.125267382672    -0.767708404462

