# STO-3G

title

0 1
C      1.259296193754     2.739203308786     0.500309441420
C      0.627001333648     3.607850296992     1.433173334550
C     -0.273988804942     4.581012149448     0.988195240450
C     -0.557257265407     4.703789820194    -0.392859611190
C      0.051747301703     3.847880374272    -1.324281768178
C      0.968394913138     2.870219422366    -0.885488219077
H      2.100955428043     2.126948085694     0.825049805143
H      0.846141903752     3.506742970805     2.492246192042
H     -0.756959158917     5.242054108960     1.703680106456
H     -1.252193140919     5.469081094847    -0.731660967566
H     -0.169613323443     3.941964161772    -2.383793279059
H      1.476624730073     2.221492065492    -1.591301979002
C      2.046900562223     0.823763693279     3.402730432139
H      2.598758386235     1.747787074943     3.241269102849
H      1.123749203657     0.904944197092     3.969224504935
C      2.434532445509    -0.360685033326     2.877301668359
H      1.828451765805    -1.238359817294     3.047250739632
C      3.605896940720    -0.562455080347     2.010992358245
O      4.383813414878     0.399225976487     1.767855603105
O      3.790917377474    -1.826390827984     1.423759107619
C      4.828049106333    -1.905588281757     0.434984169030
H      4.858694362274    -2.931880018462     0.010676404708
H      4.630082278111    -1.198681769706    -0.404263122087
H      5.821882759372    -1.677567301027     0.881721864825
Pd     0.318513619751     0.548360001709     0.588618534024
C      1.619854501326    -1.300508010555    -1.162218149117
O      2.450373792862    -1.830643985992    -1.920975464052
O      1.641515127677     0.002755921208    -0.822332323519
C      0.433111803731    -2.113471754932    -0.549930450425
H      0.781544405872    -3.147785812808    -0.433594865408
C     -0.770597901462    -2.094580093754    -1.467880729515
H     -1.588891579650    -2.703480327600    -1.033168033362
H     -1.130587968795    -1.050967219866    -1.590411539277
H     -0.499810750415    -2.508556788228    -2.461944953516
N      0.020552825047    -1.477439364243     0.714587566723
C     -0.386311083342    -2.058292161209     1.806261025229
O     -0.758903394681    -1.399333749501     2.890312218969
C     -0.404972422529    -3.526998148234     1.927000560441
H     -1.063928247104    -3.937341960708     1.143692142703
H      0.629913011915    -3.895946463032     1.821405811442
H     -0.794732717559    -3.808140199716     2.923337545524
N     -2.401885994300     1.840618081441     0.678738527954
C     -3.591525954341     2.463320146043     0.416395397072
C     -4.478462082729     2.724284481910     1.447275054861
C     -4.168938262671     2.366440365558     2.743805394809
C     -2.966316083027     1.750723784629     2.979515467023
C     -2.101323174326     1.514847478513     1.885080966793
H     -3.837752578937     2.745593481624    -0.600400581877
H     -5.413331161842     3.213385239181     1.230103849204
H     -4.858747806680     2.572288096506     3.557791600953
H     -2.653134891010     1.460788798082     3.960873286899
O     -0.929114715899     0.934619860650     2.194186907242
H     -0.867910206076    -0.344911217149     2.735152338515

