# STO-3G

title

0 1
C     -0.498374879709    -1.249938788609     2.448707335341
C      0.831173462475    -0.884289278589     2.822580838063
C      1.057569307819     0.280816288476     3.602043466786
C     -0.027192937022     1.063150046053     4.008021278937
C     -1.354006692187     0.698430948730     3.654201098801
C     -1.588474218555    -0.441290754826     2.884838664432
H     -0.663344855358    -2.218512311498     1.973557076715
H      1.655204624133    -1.556375476940     2.593927230808
H      2.071528851573     0.556673254968     3.878911996933
H      0.142239617601     1.961782198326     4.595836797990
H     -2.184676479044     1.319110204425     3.979575863439
H     -2.603199918467    -0.725747890938     2.617043138644
C     -1.575802615663    -2.198213400241    -1.912040074165
H     -1.875441507364    -1.761826732070    -2.862404561597
H     -0.594353573399    -2.666258995080    -1.890619563738
C     -2.331397414337    -2.152159804902    -0.790220639337
H     -1.940556675733    -2.600025486964     0.111918897506
C     -3.653148033975    -1.514353388938    -0.683884709966
O     -4.146305707273    -0.915783331333    -1.678708559923
O     -4.294998898573    -1.503951100585     0.566828711618
C     -5.526021973121    -0.770717423713     0.634402280331
H     -5.936942229860    -0.834845253377     1.665001945621
H     -5.359256837416     0.304198714169     0.394243029350
H     -6.279157440760    -1.194743190412    -0.067923624052
Pd     0.394844681695    -0.437605615642     0.423625590951
C     -0.220361563413     2.281675300702    -0.220457353873
O     -0.463633079818     3.494581523195    -0.094538286444
O     -0.165341421991     1.428414994197     0.821202393572
C     -0.015320023260     1.634170174320    -1.622173123329
H      0.533324242525     2.364104968649    -2.231904908987
C     -1.355081087999     1.358270357410    -2.273135844038
H     -1.222090520717     0.868612646002    -3.257208847753
H     -1.953870941311     0.691170185088    -1.622073488635
H     -1.911520471645     2.308391441859    -2.416860380019
N      0.691780135885     0.346288155679    -1.474411388276
C      1.486108996017    -0.217026159329    -2.341787295122
O      2.031667959318    -1.404630557177    -2.169299027015
C      1.860462119162     0.462114672977    -3.597313310839
H      0.948963316750     0.668384828453    -4.180822832127
H      2.396474823447     1.391817080500    -3.342077700722
H      2.530098296531    -0.194540714148    -4.183967673920
N     -0.138763096787    -3.902663974772     0.902134021508
C     -0.411319828225    -5.225431166194     1.121859842674
C      0.402058818313    -6.198901311640     0.572806287212
C      1.494052412406    -5.847706332647    -0.191306078793
C      1.746420202373    -4.514855769583    -0.391989058761
C      0.881077013829    -3.557656984402     0.193984889557
H     -1.269495028816    -5.505497458362     1.721528128716
H      0.177834969956    -7.237910398524     0.749728038958
H      2.139854554054    -6.608606076404    -0.621558491344
H      2.587519658485    -4.182109784599    -0.965631423033
O      1.212763319555    -2.287799835554    -0.066005515218
H      1.746637833258    -1.897334207585    -1.254590222616

