# STO-3G

title

0 1
C      1.002598149077     0.420134610078     2.127931409392
C      0.814242042351     1.741704327822     2.584487025173
C      0.149306018084     1.974439399276     3.805570773373
C     -0.331379152372     0.888572725563     4.566156879641
C     -0.142292832037    -0.432206391462     4.109655460526
C      0.528450370402    -0.669132871924     2.891843185620
H      1.525274501216     0.212863225783     1.198651129133
H      1.177774598624     2.579538960014     1.994990992708
H      0.006293964839     2.993273685649     4.157458030087
H     -0.842044929055     1.070176189042     5.509435632773
H     -0.500505577071    -1.270221470231     4.703830259665
H      0.714046290481    -1.675547142725     2.526715004144
C      1.861233232354     0.492325628851    -2.896870951202
H      1.900703224483    -0.325638604268    -3.608579711331
H      1.443804619383     1.437642302050    -3.228704440943
C      2.572734481076     0.437967532395    -1.687962557201
H      2.624257740401     1.325756380671    -1.073417009239
C      3.457475944634    -0.666140664544    -1.274729189212
O      3.635967050339    -1.649211309791    -2.043752586386
O      4.191847834695    -0.521740008751    -0.086662382592
C      4.879593627458    -1.696662810869     0.362872769452
H      5.405657922183    -1.472483659817     1.315234013205
H      4.157049028451    -2.523360991570     0.554206024770
H      5.634904670618    -2.026969186763    -0.385550727865
Pd     0.383802458189     0.020897717878    -1.337607881714
C     -0.830937270931     2.464134857652    -0.379912300093
O     -1.006645613794     3.660992402034    -0.095003007074
O      0.289932251398     2.000342453046    -0.961422162499
C     -1.945761225241     1.389471868129    -0.146237884239
H     -2.597161316912     1.400907293055    -1.028468137770
C     -2.774047179208     1.660478906674     1.093471217915
H     -3.560223468882     0.886443214900     1.209047199917
H     -2.126184160988     1.665014389424     1.994422559488
H     -3.267166160549     2.651896989940     1.007131834659
N     -1.373261125890    -0.000925980671    -0.037388139277
C     -2.214953753350    -1.071807925139    -0.439619794308
O     -2.856532686451    -1.066870928871    -1.495237999262
C     -2.328024404485    -2.201591949720     0.504726433689
H     -2.790986074961    -1.833545305168     1.436066374192
H     -2.968139707956    -2.976419039309     0.044217323118
H     -1.328212630527    -2.618993602548     0.707687284247
N      0.444614835130    -1.959571600523    -1.711616218205
C     -0.071730951360    -2.530378773414    -2.840417820762
C     -0.081502116830    -3.901975899225    -2.970291183317
C      0.436744589066    -4.709154950433    -1.981153705161
C      0.941135060436    -4.125210797979    -0.848833909998
C      0.948050558109    -2.714415072381    -0.720549081502
H     -0.478160427253    -1.904086498242    -3.625941873359
H     -0.489133671645    -4.343873316978    -3.864459014152
H      0.438445814317    -5.789942664149    -2.093762042463
H      1.357877680600    -4.700800976452    -0.048313447216
O      1.398395230046    -2.216684580292     0.359085574623
H     -0.883344843826    -0.162031752559     0.851285716468

