# STO-3G

title

0 1
C      0.682000173311     3.315545345482     1.476613470791
C     -0.553157569622     3.938446419793     1.155576730783
C     -0.624694698530     5.315980199938     0.890027981251
C      0.535090340922     6.110545768321     0.950599450374
C      1.764378922911     5.510165804818     1.288150358507
C      1.839476440028     4.132150336868     1.551141091460
H     -2.886269015395    -1.234920222640    -0.571741814107
H     -1.452854136196     3.328679140038     1.118842380688
H     -1.583638974608     5.766933804194     0.645614121314
H      0.483691952435     7.178090502516     0.749149729293
H      2.664631263734     6.117285537056     1.352192590292
H      2.808961724941     3.726223294638     1.820829679001
C      0.621680009470     1.860227120991     1.776522974649
H     -0.403421160356     1.528206796048     1.951168429988
H      1.756522193185     1.707408253527    -0.559562095352
C      1.599062683999     0.902449194908     2.106033689980
H      1.245739118879     0.004054304577     2.591219535220
C      3.056147042665     1.071825731782     2.086370066296
O      3.572722624276     1.471609783045     1.006869153939
O      3.817519284629     0.328853476831     3.001885560474
C      5.241950802616     0.424614627764     2.861721746117
H      5.729102418514    -0.182658401476     3.655396353430
H      5.572063267700     0.029022006960     1.874566675945
H      5.581712654164     1.478969600707     2.974790863219
Pd     1.010813217135     0.487042793511    -0.040181158506
C     -0.998886879620    -1.254240462409     1.789934277172
O     -0.525377214500    -1.192263736971     2.938772709710
O     -0.241227846329    -1.216321700419     0.672600993987
C     -2.538801666563    -1.334629624278     1.538248416137
H     -3.006445694935    -0.805691341289     2.373898941499
C     -3.043961596156    -2.760511525153     1.508048721508
H     -4.145748168753    -2.757529367394     1.375577928442
H     -2.583453712932    -3.302920036472     0.656846095683
H     -2.793107763558    -3.275602161979     2.458477681868
N     -2.912020971315    -0.686141132821     0.281850054209
C     -2.846064205757     0.666233059005     0.189740953867
O     -2.539929039711     1.418421141948     1.150066192908
C     -3.149884401151     1.277645639881    -1.121797272515
H     -4.003481792805     1.960387605823    -0.974740436698
H     -2.259987014974     1.841803439602    -1.442822407150
H     -3.408576493657     0.503784209082    -1.866482748012
N      0.860899204534    -0.144831824394    -2.042832279171
C      1.711420163677     0.382714519877    -2.980674624788
C      1.546535618766     0.083295892762    -4.315693396547
C      0.535979747497    -0.755947134486    -4.727102208958
C     -0.290218887568    -1.288482648169    -3.775304641415
C     -0.091568886204    -0.968287490675    -2.414847071582
H      2.515116024220     1.043382041272    -2.677630260910
H      2.218346842693     0.509673912793    -5.043723420679
H      0.402310340327    -0.995423590049    -5.778992048853
H     -1.088639529762    -1.959436279984    -4.025518763207
O     -0.923263103001    -1.549973461325    -1.589943794680
H     -0.673857479966    -1.428756138118    -0.467244121086

