# STO-3G

title

0 1
C     -1.908702863290    -1.077775807278    -2.074560602412
C     -3.107061595962    -0.295980578426    -2.048020969744
C     -4.352739304921    -0.918389647424    -1.719288756877
C     -4.389276412819    -2.280939476827    -1.406664806982
C     -3.193486796958    -3.058109716089    -1.426213815500
C     -1.968370661644    -2.468998557944    -1.752475107873
H     -0.941573020537    -0.677037026526    -2.361421795361
H     -3.106585633938     0.730492060825    -2.406290410456
H     -5.262312943315    -0.323530926956    -1.716317721904
H     -5.335307713055    -2.752470705330    -1.152627140728
H     -3.237220486054    -4.115556017672    -1.179174557628
H     -1.036020193060    -3.022253969969    -1.731211873755
C     -0.712846621441     1.304755303744    -0.566451763866
H     -1.026113282107     1.601155404070    -1.570051612353
H      0.239490022758     0.785608107310    -0.612928192202
C     -0.819481749943     2.456459366181     0.411716191659
H     -0.121532869380     3.233205335069     0.106264237999
C     -2.182308993455     3.001582611025     0.650688210387
O     -3.175709709528     2.233928314744     0.466825697807
O     -2.360025509036     4.390772286910     0.795851449720
C     -3.710466162307     4.834864992879     0.980400136057
H     -3.718083888040     5.939418669310     1.100733019854
H     -4.336053994246     4.576745887288     0.096613433440
H     -4.151879346715     4.381901104265     1.896599042323
Pd    -1.997900856204    -0.156071505753     0.022646706924
C      1.368436504339    -1.554584368060    -0.225227017132
O      0.949990222491    -1.111940833938    -1.369250775054
O      0.808163556771    -2.436753364054     0.520106363984
C      2.707165389307    -0.832319337104     0.263871031348
H      3.490389648143    -1.100942305340    -0.455297764111
C      3.166591091247    -1.240983139038     1.645992206870
H      4.076430709274    -0.670149516024     1.925583390220
H      2.366317719051    -1.036408406730     2.384679708012
H      3.397145541026    -2.326313284258     1.662180234903
N      2.504020689199     0.624942755882     0.265525272626
C      2.613097015260     1.515342202588    -0.752262878736
O      2.039793062511     2.641752498778    -0.742069284593
C      3.453333727181     1.142456152521    -1.906752257319
H      4.468424925818     0.916601498907    -1.540142344556
H      2.991086238947     0.275786010469    -2.408870848720
H      3.487834979799     1.998098453244    -2.606169084969
N     -1.038923481015    -0.087763049644     1.872811876417
C     -1.048381930599    -1.289018333110     2.533228212232
C     -0.372449440573    -1.426064071869     3.729924353391
C      0.325756657325    -0.364515327212     4.261352904960
C      0.355632697411     0.807351250583     3.554281255246
C     -0.358754897002     0.905905655061     2.338740794075
H     -1.603552077788    -2.125268103987     2.124123978911
H     -0.396259431558    -2.371281926997     4.246376747512
H      0.855421368062    -0.460464628499     5.205218826869
H      0.884808598430     1.674529225602     3.896367092559
O     -0.214865072219     2.093990339720     1.746386119822
H      1.923182316279     0.989209907166     1.019288723202

