# STO-3G

title

0 1
C      1.818896395934     2.716045834962    -1.108002944332
C      3.028088924449     3.223401499807    -0.582035396086
C      3.744730796891     4.217815405212    -1.282777047139
C      3.258756898417     4.715076362696    -2.506618737074
C      2.052074718929     4.210620032349    -3.030792707813
C      1.335853060222     3.212953504495    -2.338042900650
H     -1.328718732211    -0.391935514003    -1.018496516521
H      3.424348654436     2.853556806965     0.362323689912
H      4.675266633787     4.601729064501    -0.869036594698
H      3.808956475993     5.484489900802    -3.043333993516
H      1.666076820331     4.588486616481    -3.975831212030
H      0.409473824030     2.828304689631    -2.761634345529
C      0.461927171063     2.487573210871     1.732877625123
H      0.136502637025     1.800707836506     2.503719745506
H      1.426815290287     2.955352368959     1.900780208187
C     -0.385406596180     2.980219353718     0.742672013797
H     -0.049206527692     3.789731346601     0.114602941106
C     -1.828965185636     2.699521604926     0.629085506689
O     -2.476950259606     3.296912145016    -0.269299174500
O     -2.488235830123     2.007855319256     1.663775418088
C     -3.897106989621     1.813854175164     1.468334358360
H     -4.331325264517     1.298794074839     2.350239191127
H     -4.422432830566     2.789788168803     1.354195444900
H     -4.082849299116     1.187217155041     0.564541672084
Pd     0.892628911033     1.244879204756    -0.112198210934
C     -1.011970714499    -0.823230102175     1.136186292949
O     -1.851936259902    -0.659572737047     0.166690037500
O      0.208702313628    -0.409090066544     1.103152742579
C     -1.448737128821    -1.445975673305     2.493428360118
H     -0.827242262054    -2.331953322325     2.664394995763
C     -2.899429139392    -1.864971572695     2.549068246090
H     -3.147232263481    -2.233475440234     3.566045817486
H     -3.554032022159    -1.007701135119     2.299731596164
H     -3.085200214128    -2.674555155984     1.812399561577
N     -1.213140345254    -0.434468597276     3.525913608232
C     -0.058250279228    -0.175549550098     4.208240495977
O      0.201665579582     0.948560910727     4.699337529175
C      0.891166219009    -1.290471869807     4.400493391446
H      1.710637747206    -0.940410208212     5.054434479455
H      0.354126843295    -2.122069028586     4.887201254635
H      1.302984123862    -1.584003581634     3.419110804386
N      1.308335645932     0.019695559873    -1.746630631440
C      2.587167348424    -0.101965591604    -2.220487923316
C      2.823756185796    -0.718377037912    -3.431464787115
C      1.778410878406    -1.215707655768    -4.176739928391
C      0.509519821529    -1.091908503842    -3.680228218465
C      0.299321848679    -0.464360001497    -2.429572613580
H      3.415685468824     0.293018317990    -1.644510268333
H      3.833160703493    -0.800103788731    -3.797917414464
H      1.955932918085    -1.696233727978    -5.134889567406
H     -0.350320824462    -1.457671648086    -4.203931861340
O     -0.953698138963    -0.400518223118    -2.064036506090
H     -1.796256942508     0.397970323150     3.450472643065

