# STO-3G

title

0 1
C     -0.707416372124     2.655401419013    -0.688706106030
C     -0.381705111840     3.788758679879     0.081510549855
C     -0.798257396323     5.066897067536    -0.347838865289
C     -1.525368635391     5.215038473778    -1.544568650294
C     -1.836562490786     4.079500635112    -2.317612085330
C     -1.422191325874     2.797650445349    -1.898215871956
H     -1.451111855290    -0.282599081362     1.580629550673
H      0.180888127211     3.693341702806     1.007588582105
H     -0.551134119428     5.938218345696     0.255497956664
H     -1.843630747688     6.202527397300    -1.870432815467
H     -2.396940112164     4.186340636274    -3.244150145996
H     -1.662764076813     1.928235572702    -2.507153123809
C      0.254821493825     0.887576091928     3.145823012443
H     -0.193602320374     1.860263851915     2.958284930801
H     -0.430729047652     0.095676157808     3.436506288150
C      1.575928471404     0.630566564931     3.011094274515
H      1.953639831064    -0.370061890595     3.162661746224
C      2.585502431905     1.616860887400     2.591744244030
O      2.228499063002     2.783616800576     2.270953231918
O      3.924263206391     1.206197469158     2.471161801072
C      4.828058097831     2.171035852560     1.915115254328
H      5.846898537999     1.731224643600     1.861622879412
H      4.517244410292     2.452995891601     0.883199127564
H      4.874108082279     3.083547851521     2.551610565081
Pd    -0.289601261899     0.827485540850    -0.058909316611
C     -0.920698802366    -2.342956647884     0.234795548040
O     -0.297186900342    -1.293165541723     0.865581015653
O     -0.348524894119    -3.083928078285    -0.580223081716
C     -2.416211351991    -2.503043934157     0.683586565558
H     -2.392471486559    -2.558677162068     1.786370851119
C     -3.042924378555    -3.768116831219     0.152073296362
H     -4.071120183509    -3.872805322097     0.556378933990
H     -3.100088776789    -3.709637192949    -0.954443333298
H     -2.442250953744    -4.653331922425     0.446817226812
N     -3.298263886354    -1.400297238668     0.257139183772
C     -3.136015200134    -0.167005794522     0.517009444684
O     -2.084488937446     0.434022979301     1.237901350312
C     -4.143454422924     0.788737657193     0.054604015988
H     -4.932103538241     0.245719417284    -0.498405084703
H     -4.570115962326     1.278900981111     0.945126532002
H     -3.654635327495     1.531014996429    -0.596929382111
N      1.599675839736     0.793859151577    -0.896815113571
C      2.041647306432     1.694629663766    -1.833399694605
C      3.356467103714     1.675818596419    -2.250626159958
C      4.241258602169     0.755003528830    -1.740497057460
C      3.782625767743    -0.137569812814    -0.811888428680
C      2.430400781046    -0.101160902136    -0.409303694123
H      1.367113648331     2.423608800973    -2.261133768198
H      3.688001563814     2.390225404318    -2.986424123390
H      5.277889662664     0.737305151446    -2.066170445566
H      4.420441040347    -0.878374210051    -0.371452875867
O      2.119558178488    -1.004458849591     0.484197284582
H      1.086813392211    -1.187086114092     0.700011235009

