# STO-3G

title

0 1
C      1.732113878970     2.283839546094    -1.826334264329
C      0.871445707986     3.353914553137    -2.142530617995
C      1.329276266744     4.413670900584    -2.950436882160
C      2.649820607787     4.404917176415    -3.441896830303
C      3.512735337345     3.336890600240    -3.123213896930
C      3.053876853523     2.278629358646    -2.314309789721
H      1.395304013947     1.468673818473    -1.194274121155
H     -0.148446674153     3.365135544766    -1.763344416632
H      0.663152771147     5.238250406777    -3.194229486722
H      3.003144189063     5.222487724955    -4.066274738291
H      4.532742706375     3.330150891506    -3.500850354507
H      3.716951568751     1.454057272813    -2.062815460600
C     -1.133417437069     0.873606282502    -0.244528848229
H      1.177400749487    -0.760361515253    -0.893701799416
H     -0.670747755488     1.043212077407    -1.210373760847
C     -2.002119430763    -0.148203508611    -0.066423390347
H     -2.235375065499    -0.803497130951    -0.894934410064
C     -2.665569083510    -0.476133127739     1.204423385086
O     -2.520312784541     0.297734568207     2.189837992909
O     -3.549543103068    -1.565041657722     1.242378576482
C     -4.021775292071    -1.938652993312     2.544324427997
H     -4.674677786025    -2.833656368489     2.455797492590
H     -3.170822253847    -2.208380102289     3.211708960042
H     -4.611620712797    -1.115653895516     3.006477612751
Pd     0.523877039666    -1.676575745449     1.389067462355
C     -1.068591665013    -4.027619398017     1.678050293644
O     -0.719638046702    -2.904842295271     2.343195533581
O     -1.907948141942    -4.844864471008     2.094691865667
C     -0.297627245237    -4.259109821163     0.330357597407
H     -0.997536758219    -4.730101514819    -0.371355560586
C      0.890290162551    -5.173582359137     0.542586524381
H      1.411667757249    -5.353113519685    -0.418666427282
H      1.602509424798    -4.698101762685     1.249098189488
H      0.554346799804    -6.146452271850     0.958907699006
N      0.226848631217    -2.962624916537    -0.140849035690
C      0.399075614069    -2.544940462551    -1.354680558731
O      0.885664698977    -1.340323022514    -1.662472081004
C      0.031093197280    -3.373793155216    -2.514742642956
H      0.277402403223    -2.821368083976    -3.440273081617
H      0.617260329412    -4.305455939581    -2.476092083494
H     -1.053363859067    -3.572178823509    -2.478717635928
N      0.828367171347    -0.036796232435     2.606022385310
C      0.444464189481     0.587824806809     3.755590920984
C      0.724696743971     1.935920876555     3.914961509046
C      1.396983786331     2.643717048601     2.933195139292
C      1.748302497570     1.992605384559     1.774818393196
C      1.440223474136     0.623296252903     1.658017004838
H     -0.072729920230     0.033105310596     4.530041328881
H      0.426988270153     2.428445635478     4.826220151450
H      1.633566338803     3.695424767702     3.071918429010
H      2.283209930502     2.471564967270     0.978517408891
O      1.704243473474    -0.047965560439     0.550768531139
H     -0.809813313064     1.536358326956     0.564879228648

