# STO-3G

title

0 1
C     -0.437389638982     0.834131311103    -1.329188243485
C      0.472078425708     0.051620910134    -2.069244071390
C      0.961184113269     0.522844984016    -3.303654254340
C      0.542825787853     1.775114142477    -3.797787539556
C     -0.367788197521     2.556220445838    -3.058341654851
C     -0.857386161767     2.084279763048    -1.824406218474
H     -0.806628112922     0.464151231192    -0.372950502946
H      0.796086608060    -0.907029312371    -1.670576450269
H      1.663378398415    -0.081168377601    -3.874202054498
H      0.922446122381     2.137837523008    -4.750529291533
H     -0.692235785817     3.521458850136    -3.440409780069
H     -1.569233163281     2.677972889537    -1.254591521583
C     -1.876423546017     0.979217553353     2.920465907253
H     -1.880557693171     1.146652032593     4.001091465538
H     -0.785423913809     0.533251970778     2.783254883553
C     -2.928040904676     0.044693973487     2.412595504653
H     -3.384485061463    -0.554322347139     3.193273749249
C     -3.865363373606     0.413700911198     1.338980896668
O     -5.019484512833    -0.091428858717     1.382126318916
O     -3.331007247926     0.849863930517     0.114320199841
C     -4.264853950613     0.994580765445    -0.964998764725
H     -3.728040615996     1.344435546737    -1.872859751646
H     -4.745261125756     0.019815639083    -1.207020246442
H     -5.048084825286     1.743783775545    -0.710744222606
Pd    -1.271956367525    -0.925301346384     1.708044502089
C      2.718789376466     3.214499738639     2.365009926288
O      4.019115987105     2.916186859533     2.765243359440
O      2.354476306366     4.382290686951     2.259781302429
C      1.889690951801     1.921797704967     2.103299361676
H      2.248395133385     1.183613446055     2.839612695723
C      2.185336640619     1.349763534898     0.729974630026
H      1.695519320813     0.358352848353     0.628142047667
H      1.787344811203     2.025488255397    -0.054445167540
H      3.275433735295     1.218076851091     0.574557460361
N      0.472343227689     1.987442887182     2.255402532224
C     -0.520887268912     2.693364178392     1.934425676617
O     -1.806504081977     2.254620016979     2.226194393841
C     -0.460630043568     3.990185949483     1.249667609374
H     -0.062516029527     4.730306764320     1.962183898140
H      0.195836745462     3.893095200321     0.371352006092
H     -1.480351944994     4.282573531376     0.942510318458
N     -1.745340647808    -2.488359850162     0.485443286568
C     -2.799724655922    -3.149218806634    -0.071006234455
C     -2.557818426633    -4.180141155525    -0.959437787091
C     -1.264826104583    -4.543890091618    -1.290291052376
C     -0.218257686862    -3.860216054884    -0.721577615229
C     -0.496406829452    -2.810201398365     0.179522386648
H     -3.814743428988    -2.867190002615     0.185125017463
H     -3.391337728204    -4.703032763821    -1.398841834785
H     -1.080428015416    -5.354298397412    -1.990383179575
H      0.805801834671    -4.084250575456    -0.938205512578
O      0.470081696555    -2.129199367079     0.710891763050
H      4.163562813232     1.949165701628     2.856425492377

