# STO-3G

title

0 1
C      0.501395972928     1.435299648926    -3.130093779657
C      0.146734787539     2.520206401377    -3.956094651207
C      0.981627517314     2.891467171601    -5.028289231799
C      2.168144647160     2.171585640177    -5.277859291569
C      2.516843439523     1.080185397092    -4.457454892731
C      1.683913390652     0.709821663514    -3.382277408445
H     -0.169403968357     1.169862940275    -2.318090333373
H     -0.779490106720     3.054545488732    -3.758688404283
H      0.708821302988     3.729391103026    -5.666400310931
H      2.811903378238     2.455285422979    -6.107830976610
H      3.426296007096     0.517796310002    -4.656409041988
H      1.949984787253    -0.141091536355    -2.758385444717
C      0.937854335272     1.587750977085     0.301845895197
H      0.488476562948     2.574859055005     0.363303336541
H      1.430004429598     1.342701827801    -0.633241147099
C      1.060481762676     0.741426177086     1.408676491484
H      1.589312998216    -0.193767318090     1.288374197389
C      0.754002302470     1.124553969567     2.795470497009
O      0.763309956503     0.232762837266     3.682770938230
O      0.341785721413     2.437432325781     3.084911344147
C      0.120928526801     2.736371808986     4.470810657612
H     -0.192737629646     3.798018625867     4.572430857769
H     -0.683603097983     2.094048880690     4.895182543486
H      1.055621547942     2.593613270966     5.059488603068
Pd    -0.710826819973     0.107788703706     0.118398064056
C      0.133202622692    -2.135807246499    -1.502055356157
O      0.584778802275    -1.266009571325    -0.572660802869
O      0.856009314692    -2.982379845005    -2.055464268065
C     -1.398989356381    -2.058719827405    -1.830871633936
H     -1.794133852165    -3.068942449997    -1.663667964491
C     -1.656457323577    -1.711938977952    -3.282463962975
H     -2.747104612496    -1.734441427985    -3.489642287697
H     -1.270128937948    -0.698915776433    -3.516655066753
H     -1.153804061307    -2.446670639513    -3.946687068369
N     -2.142565619771    -1.071204525184    -0.971836085981
C     -3.071516749193    -1.530416686585    -0.002047526382
O     -4.169994627174    -0.998972094717     0.185370762016
C     -2.635566747726    -2.624403690121     0.893738207246
H     -3.264739486794    -3.506503944210     0.682417126778
H     -1.565378193902    -2.853827076165     0.759901733425
H     -2.806252946292    -2.292928546676     1.934469603992
N     -2.098497900487     1.509520066070     0.609195440517
C     -2.491991748074     1.916996580721     1.852652550205
C     -3.419226491407     2.928078207015     1.985089335882
C     -3.974400812287     3.525812601109     0.874782536016
C     -3.598767705059     3.085967661047    -0.366652115398
C     -2.658636924706     2.036162234514    -0.489687174579
H     -2.078749791400     1.444081117242     2.733676314894
H     -3.718540120653     3.245225887928     2.969823222336
H     -4.709585356744     4.318804013986     0.981798810668
H     -4.021831156408     3.486048255022    -1.265232220617
O     -2.390896171404     1.614147410274    -1.668510282730
H     -2.504761618473    -0.219772412682    -1.462120637072

