# STO-3G

title

0 1
C     -1.754174136464    -2.260989257681     1.472288576769
C     -1.163443321400    -2.441976487914     2.744145068198
C     -0.575063238607    -3.674534400769     3.083120513070
C     -0.577773255509    -4.733673178410     2.151217647175
C     -1.181323969509    -4.561932975649     0.889734953953
C     -1.777243824179    -3.331835922233     0.552292754593
H     -2.241617993381    -1.316733123858     1.245501005011
H     -1.185505269919    -1.628977736142     3.465291274904
H     -0.131296745998    -3.815500822398     4.065989252425
H     -0.124527439399    -5.688254216143     2.409254068623
H     -1.185224306813    -5.378689815590     0.171490826408
H     -2.238284274353    -3.212011241507    -0.424207212901
C      1.165506870132     0.017899653776     2.248554268654
H      1.638417367057    -0.812723761671     2.760029802687
H      0.264062787236     0.425894188382     2.692903354470
C      1.797125126104     0.744692345030     1.230345272508
H      1.352994644789     1.671232121647     0.890415090992
C      3.158292268934     0.481127430913     0.730230924436
O      3.824510320205    -0.479579148717     1.200231665491
O      3.644275809027     1.251336694415    -0.338288122528
C      4.956864919301     0.916155837589    -0.810011696597
H      5.231581882578     1.595174933096    -1.646140529041
H      5.712146683216     1.040786209790    -0.000899479645
H      4.987347737398    -0.131332571390    -1.187422981238
Pd     0.124501017878    -0.527424329276     0.282625980754
C     -2.028475743311     1.446422739716     0.112002814179
O     -1.091659819608     0.927767261436     0.947286259405
O     -2.908899472146     2.227678851565     0.508361411271
C     -1.940467991664     0.984601144222    -1.377573264393
H     -2.062078709606     1.894975810335    -1.976365631178
C     -3.037906628294     0.008862145003    -1.741470337624
H     -2.984625276501    -0.228951236473    -2.824619159060
H     -2.924418103037    -0.928224155894    -1.162613580969
H     -4.031262284567     0.455119031479    -1.523508783530
N     -0.641559557000     0.351767076025    -1.693966895988
C      0.397632647673     1.227312978052    -2.000614223882
O      0.390753407436     2.439749766650    -1.715208384276
C      1.550463513054     0.643017554856    -2.712751696992
H      2.017324617849    -0.121795871198    -2.072980898263
H      1.190821976860     0.199883065434    -3.657717316423
H      2.281854242852     1.445943568901    -2.922082779546
N      1.167599290386    -2.146591623377    -0.403191165613
C      2.032535905291    -2.857992963060     0.385906355753
C      2.565393184221    -4.046756267374    -0.062650581810
C      2.235822449523    -4.545100573261    -1.299832477121
C      1.351095021674    -3.843759435471    -2.071510774458
C      0.796015754834    -2.631121170978    -1.596330203646
H      2.298465410301    -2.499507152904     1.368471301205
H      3.250180549107    -4.587094015068     0.570007116012
H      2.658707142806    -5.482372276137    -1.651467848414
H      1.036753510422    -4.195819275620    -3.033191767332
O     -0.061854654337    -2.076389170902    -2.368343517533
H     -0.566012091598    -0.627343536023    -2.114287576405

