# STO-3G

title

0 1
C     -2.700183660139    -1.699543955674     0.491885516166
C     -2.607691191720    -1.345801939109     1.854229447219
C     -2.410582455099    -2.341478796717     2.832130816014
C     -2.325129432663    -3.696053587701     2.454583153431
C     -2.455061753076    -4.056334126324     1.097355552477
C     -2.643544529241    -3.060073166490     0.119704381799
H     -2.852711326214    -0.924858790157    -0.256458824883
H     -2.715060445002    -0.304680756581     2.147785493289
H     -2.341747480737    -2.063107225683     3.881502204816
H     -2.182971863342    -4.464701308510     3.211228490625
H     -2.423635436930    -5.104550960664     0.807374863805
H     -2.770484793491    -3.345118401615    -0.922748848581
C     -0.515009471950    -1.721529363687    -2.144422220320
H     -0.439027196291    -2.719076087636    -1.728591877316
H     -1.501069645385    -1.373168868742    -2.433359515511
C      0.611290387160    -0.996043643196    -2.554144020603
H      0.473755887288    -0.083719842038    -3.116553375296
C      1.998256843868    -1.485863228787    -2.468030259972
O      2.226835010869    -2.661794066244    -2.075910698146
O      3.040541297259    -0.609879444813    -2.810721599588
C      4.368142735392    -1.089696414177    -2.556208845191
H      5.104073779936    -0.312159911266    -2.854411403609
H      4.509646801628    -1.302012748764    -1.471530266221
H      4.577055133836    -2.011552429401    -3.145174955647
Pd    -0.126604264775    -0.154715207140    -0.593389514235
C     -1.458728292318     2.231376657302    -1.512694876420
O     -1.466530750356     0.882134710391    -1.664450141188
O     -2.193838640097     2.987675081395    -2.166773215910
C     -0.423443997266     2.779044786957    -0.478188141246
H     -0.921607628154     3.597029165714     0.053278421691
C      0.816887901001     3.313384915752    -1.164342294764
H      1.496546849674     3.769207537271    -0.413946850474
H      1.353998565852     2.491196321605    -1.682605724919
H      0.536586198960     4.090966527682    -1.906133529180
N      0.009413754127     1.742161563215     0.505895408444
C     -0.751840911095     1.662843210640     1.678300513759
O     -1.896553539594     2.128905561306     1.795837762640
C     -0.118055292958     0.975222785717     2.820464285841
H      0.845776774957     1.466409667672     3.042777720574
H     -0.790158597761     1.059588253557     3.693727210051
H      0.023419253603    -0.088526019200     2.567967366377
N      1.273479948351    -1.141565783233     0.506748114215
C      1.153251879145    -2.459679534761     0.855059992911
C      2.134360066880    -3.063484167203     1.610670204150
C      3.253557921005    -2.365210532011     2.003036500719
C      3.357395179740    -1.043757536168     1.658242064787
C      2.331562932047    -0.425497221281     0.905510488917
H      0.286468608096    -3.027156494203     0.543340831964
H      2.031030448415    -4.103810473110     1.871755675035
H      4.033468374163    -2.849919969174     2.584249479659
H      4.195585564233    -0.444446844969     1.951143673461
O      2.468358958449     0.826174441760     0.666215356622
H      1.058702481771     1.554284483666     0.615858675453

