# STO-3G

title

0 1
C      2.362474193812    -0.995364711953     0.428660832118
C      2.213024080644    -1.974188711479    -0.578115458324
C      2.431389989906    -3.334422167841    -0.271356809274
C      2.801548524047    -3.712021658694     1.035112130492
C      2.958881294073    -2.730914922431     2.037104023266
C      2.740639849959    -1.372001069744     1.735461582148
H      2.205982485670     0.057438082194     0.214367016599
H      1.949351184156    -1.679447026596    -1.591055263524
H      2.321567624767    -4.087525032073    -1.047997199787
H      2.974751735445    -4.760297717212     1.268283374862
H      3.256302139154    -3.022927349684     3.041804172738
H      2.850840170272    -0.594937093323     2.486458356381
C      1.375400642679     2.676389609956    -0.463659625612
H      1.846813907391     2.197587297693    -1.318456487744
H      1.928707701993     2.688496840412     0.471432404021
C      0.156993604893     3.357254546542    -0.600831867912
H     -0.226419944000     3.904263751943     0.246684933602
C     -0.520850229274     3.615284734773    -1.883815495899
O      0.071855961773     3.394989653619    -2.971857505476
O     -1.827055258813     4.133547389792    -1.852724985659
C     -2.437444637626     4.362090266197    -3.131192522612
H     -3.462129779414     4.766660200659    -2.985445023132
H     -1.852298065976     5.103241289753    -3.722245348275
H     -2.515691766845     3.412333958218    -3.708478618333
Pd    -0.231904296224     1.250881722069     0.096664653312
C     -0.730328105286    -0.659976118950    -2.011895437980
O     -0.047103529105     0.470549419990    -1.760315113082
O     -0.704102865060    -1.284578033675    -3.088090900020
C     -1.625027099330    -1.158717845094    -0.823133029877
H     -1.714383635877    -2.248820389603    -0.893928166551
C     -3.001898812872    -0.531695935902    -0.880815743386
H     -3.692865362554    -1.059361750270    -0.191509830628
H     -2.950509834711     0.538344579278    -0.593208922687
H     -3.418713144345    -0.614674770904    -1.906905847696
N     -0.934376299041    -0.779076043251     0.470795153363
C     -1.541077276993    -0.877120382924     1.754254750743
O     -2.684134611992    -0.491330889555     2.019472442579
C     -0.681252830619    -1.429543164678     2.821868129565
H     -0.388548279740    -2.459462262231     2.553254481887
H      0.205667278111    -0.783921140190     2.934594174546
H     -1.251307029663    -1.434826119702     3.769917090079
N     -0.439054171468     1.990317446753     1.967465343508
C     -1.657883893952     2.390777983640     2.441198562464
C     -1.780875324693     2.805090996953     3.748530240271
C     -0.693144578018     2.815228523701     4.592516754058
C      0.519886318610     2.400615449328     4.109655180729
C      0.646799412579     1.976354705420     2.763686734643
H     -2.521476358021     2.385400203154     1.786014502092
H     -2.746425662183     3.115498924518     4.113107434886
H     -0.796129978840     3.141509102974     5.624010276568
H      1.399715187263     2.385542506329     4.720598250106
O      1.792236732220     1.584342076500     2.380206523822
H      0.008244329222    -1.195389567845     0.464162747051

