# STO-3G

title

0 1
C     -2.094649266426    -1.825411614909     1.218369092451
C     -2.910904862290    -2.701725395039     0.475137327412
C     -3.051699504956    -4.044874591619     0.877345783402
C     -2.376911160960    -4.510262104519     2.023828757098
C     -1.571348779620    -3.629146812648     2.772945559742
C     -1.431152374877    -2.284611280255     2.375140571830
H     -1.981794482016    -0.790535523750     0.900515985947
H     -3.446489744640    -2.339604629148    -0.400352481416
H     -3.685926009621    -4.720059887411     0.307066878720
H     -2.486390084564    -5.546728330157     2.335589140678
H     -1.060606332206    -3.983845520060     3.665573029175
H     -0.813542939622    -1.599300918306     2.949773031310
C     -0.866133822068    -1.191530489703    -2.024155513779
H     -0.948423121601    -2.204461840176    -1.647569336564
H     -1.787009306948    -0.625672446183    -2.124448260113
C      0.314866765060    -0.684319710704    -2.578586493257
H      0.294873970067     0.277285823977    -3.071646986111
C      1.560568148952    -1.453455045365    -2.744170819587
O      1.570509206286    -2.691508578444    -2.508240081139
O      2.714430420902    -0.777867069706    -3.172432861591
C      3.928888593780    -1.540670254290    -3.141965230934
H      4.772688998015    -0.904107547031    -3.485124580092
H      4.152792221836    -1.883606294535    -2.105304545481
H      3.860833708845    -2.423285137212    -3.817817813555
Pd     0.064188940007     0.178148156011    -0.511211142249
C     -1.126242029698     2.782188981239    -0.879881977066
O     -1.237433164441     1.500512924200    -1.302810782459
O     -1.848278743975     3.707354710136    -1.289332153736
C      0.005436315502     3.028561298258     0.175959762057
H     -0.330220654535     3.838127851776     0.834135449772
C      1.283809789532     3.488605307435    -0.495968029349
H      2.048607466170     3.732493431759     0.271877045851
H      1.685986704866     2.688143850337    -1.152810102950
H      1.092304859877     4.397339098949    -1.105038644933
N      0.316480354898     1.782516370026     0.944983000469
C     -0.394971683524     1.394799680439     2.097553163827
O      0.042275233445     0.551525359055     2.895703773088
C     -1.747982433923     1.956168943491     2.316006031525
H     -2.198032387361     1.442592819498     3.186711199953
H     -1.662785445525     3.030969936377     2.543421749812
H     -2.372660316516     1.771682909628     1.424749540458
N      1.454911299160    -1.064487478428     0.314533495221
C      1.302899999417    -2.416333307151     0.474519801878
C      2.321558131243    -3.165776813135     1.022383293210
C      3.498012766180    -2.573953363955     1.419553311582
C      3.631791033802    -1.219362460752     1.275776627119
C      2.568756628727    -0.455842107773     0.737818230139
H      0.393353693518    -2.905496422359     0.152156468982
H      2.190121809911    -4.229595308182     1.129134194425
H      4.299762075926    -3.168149474809     1.849264412558
H      4.509225632277    -0.696998315321     1.597575550987
O      2.734851062450     0.814338740144     0.697810010420
H      1.359173927356     1.511778225964     1.006872366806

