# STO-3G

title

0 1
C     -1.596716555077    -2.312599605223     1.680334477036
C     -1.292289014958    -2.518784959912     3.042104515460
C     -0.870244652479    -3.786054690003     3.488654070651
C     -0.752327510038    -4.852114061268     2.573020106219
C     -1.069451219299    -4.650504341459     1.215269799761
C     -1.497849338660    -3.384487117969     0.770230702901
H     -1.925616374939    -1.330111991996     1.348648436485
H     -1.395974908041    -1.699621731530     3.750132315841
H     -0.642896326080    -3.944785935153     4.540331756825
H     -0.427273855546    -5.831834282938     2.915884225759
H     -0.986183758536    -5.471749736683     0.506505888695
H     -1.737714495436    -3.240619807951    -0.280772602451
C      1.117462109805    -0.158402802096     2.163875119694
H      1.528444428632    -1.067739984188     2.585190433117
H      0.184980709464     0.196909908003     2.588680297975
C      1.828751233182     0.698294990668     1.317520394489
H      1.400388203099     1.662675831666     1.078768674875
C      3.213896937852     0.498827407854     0.857943077387
O      3.871214854924    -0.498943410771     1.256117220110
O      3.711531059741     1.346583775120    -0.144457819653
C      5.042989802092     1.068665734436    -0.600410632176
H      5.326364861560     1.807961292998    -1.380815613413
H      5.773624813727     1.151799900629     0.236229232837
H      5.105354956391     0.050215189372    -1.046978085338
Pd     0.236391241192    -0.377675576858     0.047282953165
C     -1.937520384518     1.546741464788    -0.029270299890
O     -0.922535619390     1.099645437053     0.761331553431
O     -2.802654658626     2.333788404055     0.383255340237
C     -1.941797646071     0.973103602357    -1.481553753379
H     -2.155803866881     1.817469505971    -2.146676502518
C     -3.000169116586    -0.091079748655    -1.672928141790
H     -3.016001456903    -0.417999684478    -2.733908282780
H     -2.783788297093    -0.967866732261    -1.030971124351
H     -3.999747689119     0.316117799497    -1.411487425321
N     -0.627480404873     0.377792207335    -1.822534490667
C      0.360330812400     1.298110301834    -2.208646145317
O      0.261998789963     2.526473462980    -2.053725279689
C      1.571847208438     0.724888871939    -2.826135261640
H      2.065974453975     0.060761343994    -2.099332864592
H      1.274502248277     0.169183004270    -3.732818256594
H      2.256383172560     1.550747191556    -3.096145446690
N      1.176420804457    -2.067307673545    -0.682232590580
C      2.046324237254    -2.807153911500     0.077222015470
C      2.498953015078    -4.029495426230    -0.368380212135
C      2.087867090661    -4.536899843988    -1.575864430712
C      1.204521622848    -3.807056549507    -2.320247304223
C      0.735588478602    -2.557566681923    -1.848827828870
H      2.379231046356    -2.449732165664     1.036708508277
H      3.185006823770    -4.590837079455     0.244977863004
H      2.447218450336    -5.501181632833    -1.925403837441
H      0.831509990363    -4.160883585406    -3.260538951891
O     -0.125627749959    -1.982401339253    -2.605221976805
H     -0.549936951795    -0.604516279778    -2.284424603248

