# STO-3G

title

0 1
C     -1.029521248625    -2.949622026707     1.498908380776
C     -1.134938161595    -2.846508518019     2.900177390601
C     -2.074932268860    -3.632832492232     3.595785473796
C     -2.908567686844    -4.522104167721     2.889412040577
C     -2.800631710954    -4.626523656501     1.487828577629
C     -1.861857300200    -3.840807844511     0.791626304260
H     -0.316604921661    -2.350166152620     0.940314791675
H     -0.494679461716    -2.164721568665     3.456748482523
H     -2.157346263192    -3.552381165485     4.677294261916
H     -3.634843721466    -5.128193825558     3.426384897131
H     -3.442930606168    -5.314592338764     0.942612206883
H     -1.761576803497    -3.904462594290    -0.288383161709
C      1.420117337881    -0.542505985743     1.732734748878
H      1.865769288326    -1.533384956462     1.750930738141
H      0.408904837108    -0.455791108455     2.118663155269
C      2.151906218194     0.614376014841     1.458931564017
H      1.648549496470     1.566689585281     1.540965887471
C      3.615800715166     0.680159151546     1.317379811204
O      4.302812709476    -0.372585405893     1.403718855454
O      4.207391084286     1.913581997214     1.001786278373
C      5.638114582579     1.917283315691     0.894692486787
H      5.985905304985     2.945180772671     0.652793500941
H      6.108081267807     1.610868107609     1.856965836438
H      5.978046177351     1.235860006199     0.082379491106
Pd     0.798865779499    -0.031820288878    -0.349875499497
C     -1.527820853038     1.649783459449    -0.028763634231
O     -0.270000342050     1.457731576239     0.448439901328
O     -2.299071948027     2.498221268774     0.443768599425
C     -1.945599105630     0.710162286816    -1.201146031711
H     -2.439387291692     1.346196586887    -1.943352680567
C     -2.914421174186    -0.360133819091    -0.745347664800
H     -3.223435299730    -0.986006464178    -1.608563912644
H     -2.440800139235    -1.007184043572     0.019485060593
H     -3.819895951877     0.110119105476    -0.306796263429
N     -0.772222639047     0.039240484538    -1.844204201270
C     -0.285145255256     0.686812931178    -2.998527901509
O     -0.550840588280     1.859817806206    -3.292970694004
C      0.576567070285    -0.117255089332    -3.886537597453
H      1.517169908816    -0.343332061819    -3.362423886750
H      0.037421512428    -1.039040653542    -4.167173355888
H      0.797514677070     0.474913307667    -4.794465271458
N      1.776383662720    -1.650527349272    -1.164795110853
C      3.136544195408    -1.797360257158    -1.208438268401
C      3.691608381785    -2.972890116244    -1.663412956316
C      2.896530853342    -4.018341697805    -2.072727237684
C      1.538437572847    -3.850572914040    -2.057720726931
C      0.979227834057    -2.632943785475    -1.606131168630
H      3.779528318393    -0.978501902113    -0.923136960474
H      4.764784936678    -3.075642757330    -1.682503338423
H      3.337754614733    -4.949820750705    -2.417945018504
H      0.868741777126    -4.620887377421    -2.384323987354
O     -0.298105262682    -2.534622494147    -1.669968283034
H     -0.755798974281    -1.034221209847    -1.865508909426

