# STO-3G

title

0 1
C     -2.401242549428    -1.973356131559    -0.000694511822
C     -2.710129768892    -1.390327865888     1.247196849480
C     -2.916495865660    -2.206984410566     2.378035466352
C     -2.836500399377    -3.608625446117     2.261291746036
C     -2.558208214284    -4.195812192995     1.008617105875
C     -2.339987291635    -3.379515250721    -0.117814938645
H     -2.264073563206    -1.341805502699    -0.875774655099
H     -2.824942340242    -0.312105286691     1.324854861150
H     -3.161612904130    -1.752675984034     3.335637660104
H     -3.013844320644    -4.238491602104     3.130448185230
H     -2.528255263216    -5.278880891362     0.910058266021
H     -2.150193166720    -3.834270012459    -1.088185256454
C      0.722307072013    -2.545670761354    -1.462208024058
H     -0.075380716897    -2.622586892367    -2.195165448218
H      0.770092082589    -3.315134278481    -0.703681931711
C      1.808207728818    -1.681442485344    -1.686245241913
H      2.649861633398    -1.674905607443    -1.007634066691
C      2.004239328265    -0.930350912043    -2.940540779560
O      1.410386592770    -1.295961139883    -3.988883194410
O      2.936538302602     0.120247774022    -2.956346212465
C      2.999300201940     0.874224576273    -4.175867924095
H      3.751988127613     1.684936127214    -4.072123179588
H      3.303103072024     0.225012868713    -5.028511675891
H      2.012557272290     1.341137654572    -4.403834419913
Pd     0.316545260124    -0.675707466472    -0.340366345836
C     -0.460946618572     1.450146741811    -2.121066663872
O     -0.552920755971     0.106817184882    -1.958487381151
O     -0.803869411576     2.028968900393    -3.165328367590
C      0.108333367819     2.251575408340    -0.905029668215
H     -0.602870054006     3.067178385721    -0.733041511915
C      1.470142565849     2.843832154700    -1.202322960810
H      1.791367001276     3.490482204970    -0.359259243566
H      2.219265529856     2.036557513053    -1.338815008636
H      1.425944362518     3.459284595628    -2.125534676920
N      0.219398635364     1.443527078224     0.345240926179
C     -0.811224242393     1.613189890893     1.274658297621
O     -1.926925221865     2.083657866682     0.997927212879
C     -0.520170831747     1.192073266477     2.659123270195
H      0.392261125160     1.708318818271     3.006387525400
H     -1.376458402628     1.479845758821     3.296095258806
H     -0.399203996298     0.097519595545     2.684994689924
N      1.248360127029    -1.393607662649     1.325317981261
C      0.881319501875    -2.535216271352     1.983270213966
C      1.561122803381    -2.922985655382     3.116552515028
C      2.611907269451    -2.175544318872     3.600762085716
C      2.950627703292    -1.019514751628     2.948762097665
C      2.233773802265    -0.618529160160     1.797000138366
H      0.065238351480    -3.138944867685     1.609508287019
H      1.269350605579    -3.828894087235     3.622890574944
H      3.151998954844    -2.488952281211     4.490420733740
H      3.743914396512    -0.385238383545     3.290914063642
O      2.551372388775     0.507261052352     1.275063662533
H      1.189081678590     1.272717659106     0.742496766266

