# STO-3G

title

0 1
C     -1.763446982514    -2.524837516438     1.534596704065
C     -1.149663354692    -3.183081009772     2.622088939877
C     -0.806524590684    -4.545866696562     2.525457213186
C     -1.079202595450    -5.258611539306     1.339623923025
C     -1.720363487052    -4.612299140296     0.264345086940
C     -2.071074833772    -3.251075225555     0.365277454644
H     -2.036542739895    -1.473724187518     1.603184339271
H     -0.962897989960    -2.644892488042     3.549198286746
H     -0.343526611518    -5.051832889735     3.370154866017
H     -0.817098903945    -6.311828586957     1.264569121501
H     -1.961873943120    -5.168254001359    -0.639069751196
H     -2.606961475749    -2.760036211396    -0.442320903884
C      0.798881658545    -0.453185724518     2.467928831040
H      1.088250259853    -1.460319382578     2.741883028300
H     -0.145434567791    -0.080881870800     2.850989980770
C      1.692982307187     0.440576835399     1.865580285289
H      1.413568225349     1.479674988522     1.763065003681
C      3.097230046064     0.127650440008     1.545966363794
O      3.586943830125    -0.982671912198     1.887157787078
O      3.855727017502     1.081785996278     0.849382062164
C      5.163368313092     0.659857256622     0.437515194002
H      5.661712342369     1.488223073518    -0.110740807515
H      5.791872105396     0.397445816788     1.318707950238
H      5.097595165911    -0.217575131957    -0.246189775053
Pd     0.249778033662    -0.313081801719     0.299874849369
C     -1.592864928314     1.903819960081     0.098658717314
O     -1.087567492342     1.018037093964     0.999563133632
O     -2.397299177220     2.795384067494     0.408634344465
C     -0.967911756568     1.750086590818    -1.325969842497
H     -0.017365325002     2.302612197608    -1.306103951483
C     -1.824972526203     2.319960246458    -2.438107726675
H     -1.357224616584     2.115850716980    -3.423328201829
H     -2.840597714505     1.872507181262    -2.410254863841
H     -1.926449996843     3.417812490936    -2.308434728909
N     -0.591900378738     0.335350761553    -1.631326419616
C     -1.557788838595    -0.619612992757    -1.970535074274
O     -2.763534898717    -0.540533059518    -1.684362089289
C     -1.055979581413    -1.792080447345    -2.716051001341
H     -0.520134173985    -1.440486369694    -3.615383601940
H     -0.392470750557    -2.374474447882    -2.057285702119
H     -1.917293069382    -2.417419221942    -3.016037522005
N      1.589465690959    -1.631879954101    -0.478901029446
C      1.871304488545    -2.835997328762     0.107949044987
C      2.783295274974    -3.687830486146    -0.475321112893
C      3.438742485542    -3.335858901320    -1.632975526049
C      3.139920891687    -2.133679114674    -2.217233487568
C      2.182262738763    -1.276096106605    -1.626182538809
H      1.375184496953    -3.122710256696     1.025841901615
H      3.001746454109    -4.629286636989     0.001335151454
H      4.170093601796    -4.003676340243    -2.080393668143
H      3.603227705620    -1.814894788173    -3.129063432515
O      1.910173380493    -0.196767373108    -2.259507488519
H      0.371199712590     0.231950981773    -2.073097722745

