# STO-3G

title

0 1
C      2.366621278472    -1.246145075485     0.531654348228
C      2.276797063420    -2.393683528815    -0.286425787880
C      2.460533117153    -3.673939871170     0.278421576429
C      2.737502653869    -3.804995667080     1.654119193232
C      2.836910803956    -2.656464267781     2.467958534127
C      2.652807243179    -1.376754844540     1.908104487611
H      2.233107523927    -0.248391108752     0.124285365503
H      2.083219731160    -2.292244069542    -1.351445307632
H      2.395341050172    -4.557135837329    -0.352482335199
H      2.883646769288    -4.792325485615     2.086703099004
H      3.063497543234    -2.758129341335     3.526988837043
H      2.722140364076    -0.474309114309     2.508825492329
C      1.422603850037     2.255590248438    -1.137481762606
H      1.896268540331     2.692900105481    -0.264842281557
H      1.988274275294     1.501104366177    -1.676203838499
C      0.209220527229     2.723214696913    -1.663512006890
H     -0.157657705479     2.294207071759    -2.584921183769
C     -0.485873584886     3.936875948020    -1.201026704151
O      0.054439340855     4.695387392694    -0.353570950686
O     -1.783909515727     4.184168892725    -1.679920397908
C     -2.421362457733     5.365975822381    -1.173850564804
H     -3.435608314656     5.458368630321    -1.618729106840
H     -2.528794401249     5.315647093632    -0.066126349308
H     -1.839135420534     6.276116526294    -1.445142617219
Pd    -0.183579602677     0.928011606874    -0.375387921626
C     -0.538513556982    -1.373028142825    -2.088691699809
O      0.112121690036    -0.196374055629    -2.037790795671
O     -0.440784691951    -2.196365457856    -3.016994697670
C     -1.492900907977    -1.650028274640    -0.873539165323
H     -1.550809037221    -2.734803179869    -0.726882982240
C     -2.878951812435    -1.101017410128    -1.137757047861
H     -3.598349192435    -1.503373346778    -0.394901007594
H     -2.873578696696     0.006455319277    -1.072078569307
H     -3.228024124963    -1.406400139884    -2.146883897920
N     -0.899831467109    -0.996256589296     0.357701991071
C     -1.597830749955    -0.826782244198     1.586738407553
O     -2.750615593537    -0.393552046084     1.682957727140
C     -0.824457734680    -1.147734068506     2.804652851205
H     -0.530350060190    -2.211180409715     2.775844686158
H      0.062691449596    -0.493478430188     2.845637576347
H     -1.459730493080    -0.955387981542     3.689624837329
N     -0.484970768536     2.022395718968     1.288081356730
C     -1.700597006753     2.551694451914     1.621418138683
C     -1.846417414379     3.240453079609     2.805057645791
C     -0.780017113154     3.407011149536     3.660756508257
C      0.428854336036     2.856842396725     3.325133966132
C      0.577654343934     2.152414195604     2.104808840763
H     -2.545030912408     2.429882521473     0.952859023509
H     -2.807952978654     3.653985571217     3.058983705866
H     -0.897678296139     3.957280039022     4.590263938699
H      1.291873121129     2.953111500277     3.951443266064
O      1.712162952097     1.635470694066     1.856504219261
H      0.041089010906    -1.389359304019     0.506512060073

