# STO-3G

title

0 1
C      2.497293116322     2.616353442195    -0.828136976890
C      3.386723941915     2.378653246620    -1.893743666310
C      4.653051898584     2.995803316628    -1.902306562217
C      5.031276695692     3.840807304227    -0.838965928594
C      4.143178265152     4.068622175420     0.231078645783
C      2.872405399818     3.458936010172     0.238008122426
H      1.527626910127     2.124279195752    -0.835418231325
H      3.091884737411     1.705636614424    -2.695567931206
H      5.341447703487     2.812709936589    -2.724617684824
H      6.012172508252     4.311514192992    -0.841295391979
H      4.435695039699     4.713555266248     1.056616361598
H      2.185999408087     3.644561868537     1.060561516984
C     -2.257370603767     3.285709848961    -0.470967393100
H     -2.212726029715     3.692903408952     0.535012783389
H     -3.179730184001     2.789368635950    -0.751900310846
C     -1.257641092201     3.586071811019    -1.405260376799
H     -1.344360364787     3.248217974919    -2.426598261805
C     -0.200352514778     4.597958346508    -1.213301201012
O     -0.185541761529     5.305504074406    -0.172783389639
O      0.622711841016     4.897303310238    -2.312173266612
C      1.567733930966     5.959603657178    -2.119828187734
H      2.175783805653     6.083213085404    -3.041221323753
H      1.046269833811     6.920644723042    -1.910233185417
H      2.261950308820     5.728811706598    -1.281799241623
Pd    -0.859486927087     1.580173870459    -0.342112556171
C      0.466099963152     1.776764523680     2.218665505518
O     -0.322926160579     2.465419985896     1.359970955084
O      0.960747806221     2.294011690468     3.234360423592
C      0.694030902520     0.273810664525     1.879855120541
H      0.296621460628    -0.277639387200     2.739589481389
C      2.157979292367    -0.075150427600     1.715583145860
H      2.269652166477    -1.168066215798     1.558766242941
H      2.591666342460     0.458347602063     0.846518789869
H      2.721621138282     0.211609374332     2.628550136913
N     -0.040211992134    -0.191345819652     0.659873349006
C     -1.099461887010    -1.089414717867     0.919997706718
O     -1.697719450045    -1.148999308967     2.002666172847
C     -1.465293679567    -2.021198187066    -0.164850322891
H     -2.160881390377    -2.775864418875     0.246914186599
H     -1.976105487538    -1.461793991735    -0.960607620600
H     -0.554614537674    -2.523448164994    -0.538361254212
N     -1.202868052808     0.657347588499    -2.153228018255
C     -2.327259864945     0.729581601631    -2.930458075272
C     -2.363898526233     0.096198915549    -4.152570297301
C     -1.277421098070    -0.612004484858    -4.615219861450
C     -0.165424972408    -0.697537446152    -3.821721823080
C     -0.141845428033    -0.057061709369    -2.560969071738
H     -3.189575935001     1.288341156430    -2.590164208262
H     -3.252086106488     0.167825374822    -4.760028776454
H     -1.306101981205    -1.102413976851    -5.584941607125
H      0.704848261844    -1.247533525204    -4.120432522606
O      0.908093889242    -0.220587249783    -1.846428286715
H      0.518401959090    -0.375329113995    -0.218290053819

