# STO-3G

title

0 1
C     -1.419853160175    -2.645935278299     1.402512299089
C     -2.021933111932    -1.983447916742     2.491776636249
C     -2.734019513553    -2.727430707806     3.454034583675
C     -2.844579452327    -4.126531103841     3.326235566994
C     -2.248610326648    -4.784892928929     2.231114520848
C     -1.538991573586    -4.042842906515     1.266566680813
H     -0.871844735807    -2.096956006038     0.641793452619
H     -1.951919084863    -0.902061533047     2.586336459591
H     -3.204061087643    -2.218048031046     4.292051326392
H     -3.395780330155    -4.698375275673     4.069676367712
H     -2.341490804084    -5.863896464501     2.127882508280
H     -1.089683806455    -4.533134090581     0.406042699906
C      1.701339278305    -1.146067349602     1.667811931924
H      2.251606210798    -2.053066456922     1.434657124584
H      0.732922978714    -1.282667527958     2.137257020155
C      2.272577573019     0.128802077860     1.591049058785
H      1.682017014402     0.971821141479     1.919159423290
C      3.696959367545     0.410635307047     1.347762910449
O      4.500489827530    -0.538578549575     1.145769847478
O      4.113835771206     1.748910367215     1.267026380402
C      5.515021175575     1.960160268840     1.042419697003
H      5.720907001421     3.052099022139     1.006886809527
H      6.119114177603     1.520850968459     1.868735011119
H      5.833826833425     1.515363902796     0.072727584562
Pd     0.895522103889    -0.291535635160    -0.226648639578
C     -1.561853509634     1.065802572795     0.456898638348
O     -0.288625549892     0.880806027931     0.881063296783
O     -2.432631812493     1.587224608136     1.174200166385
C     -1.859956201471     0.630405480071    -1.008816247330
H     -2.094678303486     1.558762054057    -1.542754107710
C     -3.048430551294    -0.301999889607    -1.114326113273
H     -3.256812975411    -0.527964893139    -2.180794973118
H     -2.850111176241    -1.251131532756    -0.577251151495
H     -3.947470868882     0.177474269765    -0.672396140264
N     -0.698053127343    -0.007910515201    -1.706879177572
C     -0.209369209287     0.713752749032    -2.818257479409
O     -0.383496360350     1.929491204063    -2.977350114816
C      0.517822289678    -0.059348516601    -3.843787733895
H      1.489950166644    -0.370699971176    -3.435687446074
H     -0.095767460690    -0.927198648549    -4.142719590551
H      0.688560437977     0.592955427791    -4.720806426071
N      1.923441777022    -1.693553675753    -1.314140933617
C      3.275816254637    -1.756883973758    -1.511616122752
C      3.828397543411    -2.845456339447    -2.150080780755
C      3.039827999217    -3.885300976464    -2.587671277702
C      1.685003053416    -3.799956220290    -2.409096064446
C      1.124903079819    -2.670980995650    -1.767526713596
H      3.908474850477    -0.937131705241    -1.203580067161
H      4.896428198281    -2.885031230232    -2.292720485890
H      3.481865488202    -4.747956240816    -3.079478497615
H      1.018456576434    -4.568224683285    -2.746533989127
O     -0.153859622449    -2.632414846682    -1.676296444837
H     -0.704055240214    -1.064672112583    -1.803145814711

