# STO-3G

title

0 1
C      1.077138002383    -1.010793882754     0.961179844751
C      0.075647366034    -1.420872722199     1.862895064952
C      0.429403928024    -1.787821533111     3.175519324391
C      1.776796731211    -1.740422637045     3.586546125932
C      2.775516161675    -1.329536817990     2.681735768891
C      2.425630206672    -0.966596500776     1.365246237111
H      0.802847848357    -0.743959447559    -0.059675811168
H     -0.961354636490    -1.452367211666     1.544456390292
H     -0.342191433795    -2.110136053155     3.870511098989
H      2.047177224723    -2.026526714670     4.600663603511
H      3.816331258810    -1.297523669346     2.996395863267
H      3.204270564394    -0.664028913475     0.668172558537
C     -0.557202748668     3.061548767311    -0.942063503065
H     -1.596191299232     3.293845683016    -0.725431773958
H     -0.174131733052     3.368667427770    -1.910160541240
C      0.302775556860     2.588238541099     0.061670511905
H      1.361535194017     2.528247916081    -0.131421804623
C     -0.061847587453     2.473387477614     1.486494466259
O     -1.103767226023     3.038979636343     1.911073180498
O      0.919247442349     2.001040113457     2.371767161135
C      0.489648976145     1.808667376861     3.726111366650
H      1.328053467782     1.386639303638     4.320362064642
H      0.180732276743     2.774326407619     4.186400673417
H     -0.359065631069     1.088210485768     3.771091581476
Pd    -0.556081271913     0.878836822992    -1.185588026421
C     -3.180682915489     0.119387443840    -0.273101158749
O     -2.026610086471     0.698722039526     0.156387175812
O     -4.166003542299    -0.047014619857     0.461452587683
C     -3.159226832056    -0.233017088968    -1.795937043754
H     -3.405700741555     0.691875361252    -2.336463761315
C     -4.156651646922    -1.301377600338    -2.194949316569
H     -4.036213261468    -1.554976598131    -3.268302395887
H     -4.010603283022    -2.213759037211    -1.579407850070
H     -5.189498950651    -0.931230400831    -2.025633838227
N     -1.786685077436    -0.607041290185    -2.262064123513
C     -1.219400224120    -1.842005290102    -1.914690821726
O     -1.579213307704    -2.521218019392    -0.940679652156
C     -0.102090619821    -2.325654485852    -2.752549958040
H     -0.360550415723    -3.346868760179    -3.084109280289
H      0.059274103397    -1.685112203825    -3.633551687435
H      0.805753625764    -2.362375895397    -2.125146792751
N      0.916504046039     0.989748850767    -2.605118816806
C      2.257737719641     1.022964977257    -2.337508786484
C      3.162789721872     1.162285656335    -3.365516782577
C      2.738620968647     1.268381105363    -4.671191539149
C      1.395731751421     1.206819021102    -4.930970256885
C      0.472556839263     1.051218802144    -3.870244442020
H      2.610815994571     0.936420759789    -1.317443372795
H      4.217343461311     1.194425934559    -3.142259880840
H      3.455483736197     1.384004770096    -5.480174468560
H      1.007685928167     1.262696887483    -5.928799494341
O     -0.760168779895     0.937571791232    -4.190067317971
H     -1.527927433858    -0.153272211613    -3.177619744589

