# STO-3G

title

0 1
C      2.859757001591    -0.244748146592     0.474781423983
C      3.510678534711    -0.460638533160    -0.758777464144
C      3.758695322725    -1.773724279477    -1.201554532457
C      3.358998910484    -2.871974224837    -0.411485257553
C      2.708114165758    -2.656934964708     0.820025637120
C      2.457890076415    -1.343374781376     1.263981755997
H      2.699149411903     0.769232889946     0.836650890224
H      3.802128510609     0.382656020474    -1.377845130181
H      4.247240972757    -1.938836297040    -2.157975492262
H      3.547796675636    -3.885798009300    -0.756333511172
H      2.391069178253    -3.501553346498     1.426419452870
H      1.946931986040    -1.179352604134     2.208756163241
C      1.525998776687     3.383516258002    -0.315588553465
H      1.990514601056     3.803477836097     0.569439128124
H      2.190999269766     3.014049424958    -1.089641911504
C      0.172460012941     3.578761913705    -0.639397501105
H     -0.168178632596     3.301423086481    -1.627733773773
C     -0.801385429399     4.333081475123     0.168613077848
O     -0.434858848242     4.880635440760     1.242195244558
O     -2.154349654938     4.291810967908    -0.203590589221
C     -3.065562565953     4.991788494188     0.655136747058
H     -4.097383065986     4.895455989924     0.252797856887
H     -3.051395696169     4.562868486403     1.682907486265
H     -2.812575056853     6.075507114481     0.701888211252
Pd     0.449292932281     1.400878009789    -0.043097252920
C      0.689471672879     0.093866856933    -2.628534849102
O      0.947748555646     1.271526374139    -1.990744572342
O      1.107493890958    -0.137524291482    -3.773413129670
C     -0.077662695907    -0.934855644140    -1.744388960045
H      0.679943049258    -1.508097341636    -1.193517829429
C     -0.930371469721    -1.905424064586    -2.535141842986
H     -1.502930015513    -2.556465156583    -1.842934443854
H     -1.635390353917    -1.354301028404    -3.191547226422
H     -0.280769752458    -2.539780561345    -3.173656634061
N     -0.902210209814    -0.238152126416    -0.725996463535
C     -1.990874421261     0.550631695342    -1.114995693333
O     -2.210850501540     0.933152204753    -2.278007167732
C     -2.907924365232     0.946159709608    -0.027755947241
H     -3.733134238419     1.537834776076    -0.465215778833
H     -3.305616042535     0.031112498221     0.445191104806
H     -2.359882720371     1.563340394667     0.702523196003
N      0.063744805198     1.367881503012     1.992819563027
C      0.457116881139     2.366324247145     2.846928567088
C      0.265635111741     2.243095837730     4.204875392710
C     -0.325248890311     1.123970051315     4.736746052411
C     -0.710547851483     0.126835712919     3.886423902468
C     -0.507415124104     0.256498586373     2.491065831290
H      0.947592803985     3.248676270608     2.471782604726
H      0.583057210093     3.042067366392     4.855704058992
H     -0.477194444353     1.031040373045     5.808984711994
H     -1.169343285757    -0.773537798453     4.243913892943
O     -0.896768468865    -0.740255661421     1.793150139060
H     -0.940279292353    -0.648489091551     0.261572499576

