# STO-3G

title

0 1
C      2.061107126130    -0.222274038037     0.336733952081
C      2.661815587662    -0.703996492116    -0.843742775747
C      4.044938825992    -0.974537879843    -0.862808233739
C      4.821810174524    -0.760695331696     0.293468874824
C      4.216401501647    -0.282037398607     1.473579452614
C      2.833571970248    -0.014723089858     1.495968516265
H      0.997818773561    -0.001399014431     0.374985286273
H      2.061006708387    -0.879871713289    -1.733611173579
H      4.510432819954    -1.352712852962    -1.769758831576
H      5.888988888475    -0.970308122760     0.276740854661
H      4.815326581830    -0.124145800618     2.367508399574
H      2.345754848144     0.340458534837     2.400124264534
C     -1.285995610087     2.030411888419    -2.094009527517
H     -2.022820949725     2.814249004893    -1.952396906591
H     -1.495824238476     1.278319314034    -2.847883591062
C     -0.014262456944     2.083589781629    -1.512889742413
H      0.730916153306     1.357826824401    -1.803972823120
C      0.485553883269     3.193186694096    -0.682215093687
O     -0.226253989966     4.220019223316    -0.513013522023
O      1.727930420545     3.049934507256    -0.047274956187
C      2.084561418047     4.084155511621     0.879180215166
H      3.078433070662     3.852476380738     1.319872522731
H      2.151879101284     5.070270948070     0.366284902944
H      1.342501873869     4.144255731892     1.707917486711
Pd    -1.286994703632     0.570296540883    -0.383451429951
C     -0.805503466991    -2.027908172478    -1.582273852016
O     -0.861829283136    -0.701566318549    -1.881456335202
O     -0.572232246178    -2.896160427504    -2.436500297172
C     -0.927931297665    -2.322558043157    -0.055315740754
H      0.086461249318    -2.224052728460     0.353893294888
C     -1.434505761875    -3.714360889030     0.263824125497
H     -1.564624445481    -3.831478785457     1.359407480488
H     -2.401955995228    -3.900584323278    -0.247613589038
H     -0.703151068213    -4.469497526171    -0.093355110401
N     -1.747453796547    -1.294135782334     0.659145655254
C     -3.154053265607    -1.292452468176     0.565704070142
O     -3.787247069309    -1.797149909983    -0.373355505733
C     -3.895637721634    -0.627692314673     1.657643982719
H     -4.694640547148    -1.318509097228     1.980794562368
H     -3.244217803495    -0.403881744506     2.517429668713
H     -4.345022914046     0.296716157482     1.254891363232
N     -1.619027644375     1.794547874011     1.226639366125
C     -2.281925493889     2.991940993504     1.189022209861
C     -2.393724261767     3.755459809671     2.330269883630
C     -1.833076488724     3.341437823305     3.516181498998
C     -1.188165668349     2.134653666376     3.548993928799
C     -1.097423738355     1.345901691217     2.377982687916
H     -2.722197084516     3.341060265277     0.263813971325
H     -2.905200922144     4.703180686441     2.280341497052
H     -1.910450290405     3.954475020083     4.410332402799
H     -0.748562472125     1.750455041463     4.447634798926
O     -0.531596926345     0.203307609288     2.499671903649
H     -1.292369880255    -0.938912112205     1.541209548909

