# STO-3G

title

0 1
C      2.206893002503    -0.199054239641     0.394601413666
C      2.661323899701    -1.344888010123    -0.294281956864
C      3.357315585877    -2.353537103415     0.404675911251
C      3.601984213046    -2.214428522367     1.785897135834
C      3.153856471643    -1.065306486541     2.470890016458
C      2.457007527322    -0.055788883736     1.777211241903
H      1.679556143382     0.595200692477    -0.126062557114
H      2.485224335901    -1.446269402666    -1.362042064905
H      3.709169610624    -3.234515116967    -0.126780114438
H      4.143204260813    -2.991084841639     2.321997277634
H      3.352748347018    -0.954163572597     3.534571299780
H      2.096563796850     0.837992325859     2.277264702770
C     -1.516881249012     2.254790885276    -2.081034421273
H     -2.290789953396     2.902818099932    -1.683073075907
H     -1.777703501100     1.590726168391    -2.899033206347
C     -0.166510291690     2.456725469436    -1.757181797335
H      0.585546839885     1.877041421911    -2.273814971631
C      0.348477066706     3.567287498196    -0.936169781537
O     -0.446888555230     4.444429025912    -0.501754573460
O      1.740090430085     3.723312810779    -0.827037133412
C      2.178735740538     4.711024422910     0.114960679468
H      3.289100992671     4.731715203397     0.135358994351
H      1.814399619981     5.723489840477    -0.171192833273
H      1.818429956821     4.460625925314     1.139483269261
Pd    -1.031089635164     0.716266824096    -0.589350575186
C     -0.319224567891    -1.726325237338    -1.965528530876
O     -0.233161185506    -0.389917421633    -2.090970964353
O      0.141937157151    -2.543639652990    -2.783161588933
C     -1.091342868064    -2.221005088905    -0.692870958364
H     -0.667754508260    -3.187506087879    -0.395696503378
C     -2.567561723004    -2.387040758979    -0.986345733977
H     -3.058646046262    -2.955582150350    -0.169594426074
H     -3.055019422432    -1.394906709996    -1.078560165322
H     -2.711288586826    -2.955927283387    -1.929329644962
N     -0.890534586904    -1.211586997349     0.421306503238
C     -1.657232604057    -1.204151960296     1.624003645803
O     -2.890903959072    -1.237020389575     1.663356077759
C     -0.877074842579    -1.111292675723     2.876343066985
H     -0.220798111803    -1.994993347595     2.955211424051
H     -0.283675680428    -0.181692982069     2.862825074729
H     -1.579370734340    -1.084431293566     3.730616587616
N     -1.819454522921     1.778852003398     0.927444414986
C     -3.163317073833     1.889816815533     1.148130463346
C     -3.620772804106     2.551366735802     2.266749399930
C     -2.739757354957     3.104341493519     3.170111041421
C     -1.394413056379     2.970490892674     2.947673824068
C     -0.929321844762     2.293753892034     1.793423945691
H     -3.864481929383     1.458148771122     0.443600643710
H     -4.681950949435     2.635103902256     2.432250664286
H     -3.105392755672     3.630186715184     4.047867593747
H     -0.663477973603     3.378938291427     3.614272073550
O      0.326365936446     2.166279952893     1.643398871674
H      0.119193417410    -1.149684715975     0.615663912288

