# STO-3G

title

0 1
C     -0.326554142196    -0.709301529146     3.215726476226
C     -0.843041313194     0.200580751688     4.161371662811
C     -1.929087538227    -0.167422001953     4.981302413569
C     -2.498853475003    -1.451343486722     4.863905866986
C     -1.979825806594    -2.368674120370     3.928076850928
C     -0.896611569157    -1.995649666978     3.107324202667
H      0.511179927791    -0.450355200620     2.572259302150
H     -0.396937780838     1.187538396098     4.264109837669
H     -2.324482095096     0.537111268303     5.709731219137
H     -3.334526550381    -1.736133089180     5.499162318738
H     -2.412488509880    -3.362768113128     3.840767713297
H     -0.492063331144    -2.703105716625     2.384378652259
C      1.045358104124    -0.107618584428    -4.051218693981
H      0.934724716899    -1.119438514475    -4.428511696766
H      0.377891728269     0.647983803934    -4.452337141895
C      2.139698791595     0.277983087929    -3.269232506940
H      2.289790724281     1.323896352164    -3.041541864927
C      3.250253395983    -0.614331636790    -2.891826053077
O      3.309118903655    -1.780692916194    -3.367267542255
O      4.232908668311    -0.130664256259    -2.012855340314
C      5.198176266918    -1.093323469951    -1.566858827261
H      5.911551233301    -0.603362947321    -0.869807236011
H      4.699521345401    -1.928230229126    -1.022741489531
H      5.776050604265    -1.503312336627    -2.426094045772
Pd     0.323790126383     0.041412340771    -1.949066207605
C     -0.944891192266     2.598459504049    -1.582846724684
O     -0.296963255040     1.867196089473    -2.512191440055
O     -1.434546782281     3.721600386067    -1.797433485700
C     -1.026676126901     1.954087696602    -0.152395960033
H     -2.014877081547     2.216118636846     0.246031951403
C      0.026204001736     2.528609343726     0.772471331581
H     -0.103302149220     2.119089899537     1.795313385572
H      1.041544666052     2.264767158068     0.405388318419
H     -0.067021352905     3.634400518737     0.818137108314
N     -0.833377366611     0.462354244329    -0.219272673638
C     -2.024411795018    -0.343368197229    -0.247996753692
O     -2.279364818772    -1.109715136058    -1.179272193344
C     -2.946895764365    -0.258831165475     0.902618966129
H     -2.521521197081     0.374896170810     1.699201579762
H     -3.907663590531     0.144015180888     0.539794354668
H     -3.095613793794    -1.282028889618     1.291894029568
N      0.957765160375    -1.748153067981    -1.210588194587
C      0.892609764534    -2.937567051880    -1.882566735534
C      1.374997261243    -4.087262851657    -1.292436499665
C      1.929678665726    -4.055083834334    -0.032878161432
C      1.963746359795    -2.861903514778     0.639269987343
C      1.442270224269    -1.695430641165     0.031086717476
H      0.474199498136    -2.974303562127    -2.880812750739
H      1.333333681714    -5.014988168586    -1.838697147758
H      2.320209684149    -4.960552783148     0.423644781123
H      2.359830398569    -2.777439419220     1.630890022333
O      1.440938961719    -0.620596920217     0.734774640590
H     -0.086331397150     0.069900799851     0.423376909547

