# STO-3G

title

0 1
C      0.981819027120     0.413171571535     2.124013224791
C      0.769205868645     1.739855356699     2.554812926430
C      0.077493839979     1.984841686414     3.758562888707
C     -0.406546001131     0.905924246319     4.527004239397
C     -0.193738942524    -0.419848775962     4.096048607648
C      0.504216028229    -0.668745934465     2.895952534649
H      1.524798834484     0.196233515773     1.208804451168
H      1.135840926181     2.571462396349     1.958345033850
H     -0.083185593642     3.007464823498     4.091368244491
H     -0.938088205190     1.096902452300     5.456806936766
H     -0.555049277146    -1.252088104655     4.696402524043
H      0.706873872140    -1.678629352646     2.550110848988
C      1.898347938403     0.474477856408    -2.863723835969
H      1.947884952499    -0.349320059454    -3.568005516426
H      1.479700558990     1.415094693814    -3.206884059026
C      2.598026042391     0.432390778067    -1.647717917140
H      2.639044883883     1.324803370325    -1.039276819165
C      3.486021845456    -0.663307762459    -1.219612900421
O      3.681850889301    -1.647314137129    -1.983431163132
O      4.212304761571    -0.504638065979    -0.028229262922
C      4.906337640222    -1.671114152868     0.433410706076
H      5.424568480853    -1.436572127769     1.387513591664
H      4.188995463436    -2.502161639333     0.625499246562
H      5.668832558898    -2.000402183951    -0.308127434775
Pd     0.406377991349     0.010607558582    -1.316106116006
C     -0.859184979165     2.467277918730    -0.452777233045
O      0.298769627558     1.990983946804    -0.948117623248
O     -1.076628098416     3.674974172814    -0.246095123768
C     -1.964221254759     1.383437871422    -0.209576293674
H     -2.602691333369     1.364827228472    -1.100948634700
C     -2.814253843380     1.675780228665     1.010440783993
H     -3.593174661298     0.895361714164     1.132893187525
H     -2.180439547675     1.708412058666     1.920790897559
H     -3.317706336414     2.658685489156     0.892599920571
N     -1.378210229387     0.002524439726    -0.056141557268
C     -2.197165800762    -1.088847623553    -0.449194480352
O     -2.824231036500    -1.114384408335    -1.513243093422
C     -2.300786073275    -2.204186228898     0.513133734434
H     -2.782144845370    -1.829303894748     1.432313951091
H     -2.919838336714    -2.999083019397     0.058084672263
H     -1.295423072094    -2.598350088990     0.735055879664
N      0.475615859390    -1.970259636464    -1.685779614561
C     -0.044667646937    -2.542452146544    -2.812095806012
C     -0.054156631088    -3.914203077419    -2.940638687312
C      0.467905016261    -4.720135070374    -1.952531664846
C      0.976096682699    -4.134893610234    -0.822630410436
C      0.982893464446    -2.723915227715    -0.695518444000
H     -0.454309728831    -1.917079143975    -3.596678442426
H     -0.465184232099    -4.357065019985    -3.832726465331
H      0.469551462318    -5.801030611261    -2.064004215568
H      1.395931872227    -4.709411268547    -0.023011574015
O      1.436530461721    -2.225204591447     0.382127595818
H     -0.901398053560    -0.132499799540     0.843990994682

