# STO-3G

title

0 1
C      2.012527021593    -0.141316459285     0.351237638608
C      2.726717396986    -0.514405671016    -0.804792360568
C      4.093859750740    -0.842586776244    -0.706663141818
C      4.741527329276    -0.795447196409     0.544048042289
C      4.022103376902    -0.427661810911     1.699522053517
C      2.655021753523    -0.101922360066     1.604284911479
H      0.960503772782     0.126449285357     0.294479240041
H      2.224899778652    -0.566463508213    -1.768930363834
H      4.646211571275    -1.136551250135    -1.595877702140
H      5.796480379396    -1.049548951097     0.618540508960
H      4.520773402295    -0.400626636823     2.665618084425
H      2.078342639547     0.166733907297     2.485390120914
C     -1.456224456621     2.074527867865    -2.095345191572
H     -2.163983884917     2.875107512082    -1.908389717532
H     -1.731658190112     1.328022388274    -2.833621720685
C     -0.147779793516     2.097708272624    -1.602945257699
H      0.555408067034     1.354381854254    -1.949345291694
C      0.439668019534     3.194143749615    -0.813533293955
O     -0.238270918774     4.229786313226    -0.574962723957
O      1.738667688712     3.035564923560    -0.309673111231
C      2.198100842477     4.059272924986     0.582495364251
H      3.228322387842     3.813270557830     0.920247629409
H      2.225025081395     5.048275073854     0.071468902343
H      1.544068370000     4.121305127610     1.482080974603
Pd    -1.373546457712     0.592343050638    -0.398073606978
C     -0.873685151942    -1.977934714075    -1.644005882696
O     -1.023956569026    -0.655402997931    -1.936061399313
O     -0.642549661638    -2.830885158898    -2.513311790538
C     -0.896020598449    -2.269712676885    -0.113142212433
H      0.127078802895    -2.095387234407     0.245512346952
C     -1.285468353105    -3.690657441994     0.240524677263
H     -1.358410544388    -3.803388652263     1.341842850514
H     -2.257753997343    -3.954042949641    -0.225600132272
H     -0.516974976977    -4.394625263344    -0.142115700372
N     -1.751549916864    -1.291096885391     0.628163497082
C     -3.156390610206    -1.391090923519     0.597106166053
O     -3.799795455681    -1.980559971055    -0.282484372447
C     -3.866349648120    -0.740999894460     1.716624265737
H     -4.943450173049    -0.975277224910     1.628751913410
H     -3.473893398271    -1.145402170018     2.666051443037
H     -3.722706230119     0.348955624295     1.656227907563
N     -1.611708579390     1.802590474049     1.248340588460
C     -2.217658446589     3.031096139265     1.233258702617
C     -2.284391021621     3.784644302019     2.384366512945
C     -1.735223927820     3.330050215168     3.560107366490
C     -1.149717147820     2.093569208676     3.572456397169
C     -1.106854116030     1.315229659457     2.391763740223
H     -2.652313124645     3.412844847932     0.319014725912
H     -2.751443259490     4.755765320899     2.350358051829
H     -1.776052329727     3.934788447275     4.462300783036
H     -0.722561717343     1.677741568743     4.462971903381
O     -0.589679829571     0.148292798361     2.500884058573
H     -1.301316198822    -0.921687283175     1.516273378091

