# STO-3G

title

0 1
C      0.891584265905     3.701547334388    -0.085073908981
C      2.192492884155     3.883174532595    -0.609325797076
C      2.387816732965     4.434749283257    -1.888998462903
C      1.280909015838     4.825008499450    -2.670290585710
C     -0.019213516056     4.660505591895    -2.155424257977
C     -0.208047812065     4.103373501426    -0.875082238646
H     -3.949470553108    -1.200759162344     1.489651571593
H      3.058039672587     3.596377280965    -0.013142031734
H      3.398095043889     4.567100830554    -2.271658256517
H      1.431751023875     5.257903137423    -3.656541800962
H     -0.881639644277     4.963318261276    -2.745056151962
H     -1.217550144709     3.977736305117    -0.487624613782
C      0.682780786920     3.119946987265     1.302948043752
H      1.192979811226     3.763717630693     2.039871905272
H     -0.381750063257     3.146434783593     1.564958023877
C      1.196832296218     1.667388771518     1.463100138814
H      2.203613399722     1.554549509553     1.059132253592
C      1.141445445363     1.043075202070     2.805675793731
O      0.729030374143     1.695934728737     3.800216460295
O      1.539525951795    -0.299292588390     2.920797858614
C      1.423072959293    -0.874664382814     4.230208816134
H      1.766215737261    -1.931779070037     4.203675064303
H      2.056107954815    -0.324232131467     4.963525665979
H      0.363845147680    -0.861278797623     4.575985824097
Pd    -0.033175118923     0.568688983239     0.198601316236
C     -2.255103508609    -1.218742978913    -1.005907572209
O     -1.400736497851    -0.243693968992    -1.243662795528
O     -3.131096697453    -1.666162584213    -1.790085909547
C     -2.157196232701    -1.780264670324     0.479825922279
H     -1.114380226990    -1.707732530895     0.810624765172
C     -2.624771938084    -3.212448450772     0.620384051803
H     -2.544427257665    -3.531333351809     1.679966479025
H     -3.684659035172    -3.288849510027     0.298762842478
H     -2.005180971933    -3.878537452778    -0.014168519959
N     -2.977358824456    -0.941281430904     1.374646014480
C     -2.579442497021     0.224399857450     1.895440646772
O     -1.459142162448     0.789934250440     1.703534790085
C     -3.531374269257     0.900704438871     2.794678358134
H     -3.765001540144     0.210961454759     3.623370083685
H     -3.068846416964     1.825546465042     3.183323459366
H     -4.442343704364     1.138061593601     2.217494391793
N      1.367224858688     0.503401931510    -1.267592032705
C      1.109449158960     1.175572215469    -2.433397214907
C      2.018938522732     1.111951274925    -3.472349261128
C      3.176598556320     0.373273269141    -3.346345358975
C      3.392077655991    -0.304023298618    -2.172101411594
C      2.431369057036    -0.215570600891    -1.149043415326
H      0.201134004793     1.756732541945    -2.535957667447
H      1.815003262127     1.651814848763    -4.382190996154
H      3.894901954067     0.321967612573    -4.160173843121
H      4.260583209248    -0.911206953359    -2.013726709278
O      2.702482076051    -0.930298743429    -0.052860714792
H      1.946332064675    -0.854171842177     0.588130634835

