# STO-3G

title

0 1
C      0.326101065772     3.722650298563    -0.362867607556
C      1.207406017034     4.828413126980    -0.355346260748
C      1.585119809708     5.464676929946    -1.552863364527
C      1.084858006080     5.002085656900    -2.786006720182
C      0.202304844145     3.904717201969    -2.806172593158
C     -0.174423028375     3.275363478268    -1.604829386512
H     -4.015375380963    -1.262370553943     1.421559790741
H      1.594035100185     5.196728291033     0.593993787436
H      2.260327669404     6.317366028745    -1.525088227465
H      1.374680981209     5.489276032714    -3.714212917390
H     -0.187866572246     3.532245306923    -3.750649493011
H     -0.850877233850     2.424009651290    -1.639511682053
C     -0.031369443121     3.023524118370     0.936247824009
H     -0.053857754625     3.764409587777     1.750178426793
H     -1.045640881212     2.610460348626     0.886388035059
C      0.979964221148     1.886055821365     1.280322931181
H      1.930562653674     2.102228727174     0.803188661176
C      1.211841068658     1.493371461784     2.688365693589
O      0.574908681377     2.050203882103     3.621506483774
O      2.214382842908     0.543411665448     2.947851519002
C      2.407991300446     0.202500038411     4.328216103486
H      3.216159317439    -0.555781619839     4.413162220733
H      2.708969769322     1.097619648451     4.919284440623
H      1.478057507237    -0.229746646554     4.763750208629
Pd     0.160790961480     0.246129296264     0.333038236899
C     -2.041102718313    -1.954900120569    -0.691424068961
O     -1.133108687965    -1.018006967981    -0.949536358279
O     -2.758638975317    -2.542061626817    -1.529899239989
C     -2.175691854528    -2.194948541464     0.853486695918
H     -1.177127252468    -2.124734830216     1.297236497853
C     -2.787775681444    -3.532489929707     1.206854048836
H     -2.859936844678    -3.631305192760     2.309619019864
H     -3.806538702925    -3.600557907644     0.771066563147
H     -2.163955140171    -4.356127720889     0.803231846555
N     -3.010376026093    -1.138064027941     1.451813490433
C     -2.529417265906     0.028193613594     1.907069791097
O     -1.328451138174     0.417112454729     1.827445711028
C     -3.494943467097     0.914934845981     2.581447018051
H     -3.933254265341     0.357500147678     3.426774515731
H     -2.965724258660     1.812585876134     2.949021510600
H     -4.276295758945     1.195180535633     1.853485446617
N      1.662723855883     0.138983935364    -1.077519454549
C      2.983367963734     0.190590542328    -0.713955607141
C      3.967802380331     0.260627391386    -1.676729507762
C      3.639357984054     0.272829901169    -3.013748001254
C      2.318372019105     0.175297370035    -3.357699047459
C      1.337530918358     0.085803705581    -2.347102053845
H      3.258334383370     0.183011414658     0.334113515819
H      5.001558766404     0.317259946869    -1.377315814194
H      4.410261644449     0.338702170503    -3.776958826280
H      1.996167073654     0.152678752168    -4.379690625210
O      0.111648339270    -0.058067276036    -2.792054071860
H     -0.579133638205    -0.473140451729    -2.086047165861

