# STO-3G

title

0 1
C      0.289285667164     3.854607676459    -0.294767631370
C      0.273235292351     4.812547219540     0.744090612879
C      0.742271428306     6.121646989844     0.528547647758
C      1.236608246246     6.497001434293    -0.735939307630
C      1.254118384353     5.552632390597    -1.781034578768
C      0.784496558462     4.244517168405    -1.559852234185
H     -4.035050254790    -0.893147845922     1.737934069147
H     -0.108830262126     4.531619843542     1.725440996048
H      0.718270124749     6.845447233464     1.340475679489
H      1.595909735386     7.509366241066    -0.905540585330
H      1.624682433146     5.836119096963    -2.763862439665
H      0.791278047532     3.523010928833    -2.376375810296
C     -0.167485720253     2.424637460505    -0.051150738561
H     -0.982923975327     2.396096103361     0.679404339412
H     -0.559691765785     2.000289861809    -0.984701411615
C      1.011218723148     1.526213585671     0.425882596186
H      1.828368820440     1.618227126561    -0.284122787581
C      1.527627723812     1.641389081552     1.808380009833
O      0.836859265799     2.188385766924     2.709506544482
O      2.758496342553     1.027871037438     2.100424296990
C      3.206558925771     1.146124218487     3.458399535557
H      4.185814874477     0.633136925037     3.571880395318
H      3.340278745208     2.215970372761     3.739043353439
H      2.481264060888     0.670529198963     4.157701054597
Pd     0.214420032027    -0.351792994267     0.113945305912
C     -2.453504864103    -2.179036054935    -0.430037871765
O     -1.253900519655    -1.789176055536    -0.851256076394
O     -3.461865238826    -2.385484028526    -1.143525516943
C     -2.514944459021    -2.280856307663     1.131757208542
H     -1.498281821129    -2.423768008590     1.509685418359
C     -3.398219688828    -3.406780807310     1.622200753427
H     -3.404205546997    -3.420303496078     2.731661612190
H     -4.435440684165    -3.249765809887     1.258621636332
H     -3.022140371212    -4.379484052089     1.244423628210
N     -3.030766627763    -1.019540176056     1.693325332067
C     -2.237143011751     0.012785165901     2.012525532705
O     -0.991934965459     0.073024043669     1.795163185852
C     -2.879341166903     1.147787013875     2.699467802815
H     -3.356435351902     0.762261258228     3.616440530678
H     -2.106692685316     1.895870464941     2.957316376751
H     -3.633684973661     1.583727196200     2.021675453985
N      1.517317916386    -0.672588170079    -1.443609297869
C      2.872207234241    -0.620841644378    -1.243165516457
C      3.733528507179    -0.701810154548    -2.316462848202
C      3.246908078174    -0.851217121636    -3.596444860405
C      1.891395669509    -0.940676918253    -3.769503132321
C      1.037382482714    -0.872955068369    -2.648148926790
H      3.266842123879    -0.491245727715    -0.241858170447
H      4.797024203504    -0.642018262514    -2.149643244698
H      3.922143636702    -0.911705874530    -4.446053515044
H      1.448877337594    -1.086133675911    -4.735373164486
O     -0.235404572030    -1.027771283387    -2.915797802728
H     -0.842096919430    -1.348306778046    -2.074601499419

