# STO-3G

title

0 1
C      0.868639284336     3.699214036690    -0.115249839389
C      2.163951732040     3.887500975831    -0.650896276534
C      2.344859542449     4.430875082736    -1.936225008110
C      1.228794564754     4.806021911979    -2.711865291213
C     -0.065952795208     4.634679591797    -2.185753641673
C     -0.240303561571     4.085757868800    -0.899834326699
H     -3.937579449017    -1.208538335652     1.516068654575
H      3.036361667260     3.612351483533    -0.059209466678
H      3.351051364579     4.568722560548    -2.327648891121
H      1.368469073746     5.232701783479    -3.702461995060
H     -0.935363437982     4.925934175249    -2.770954010371
H     -1.245648644174     3.954743003531    -0.503443368714
C      0.675132596528     3.125840942840     1.278375642744
H      1.188805507267     3.776434495565     2.006765133128
H     -0.387175225574     3.148458401403     1.549778449297
C      1.197235220056     1.676810341499     1.442142178978
H      2.202488079543     1.566814368496     1.033657144117
C      1.150138751699     1.057021081543     2.787237922650
O      0.732026895808     1.708784342237     3.780140360775
O      1.549320361329    -0.284888714458     2.904019234658
C      1.435001342122    -0.858518688905     4.214389203361
H      1.779772363992    -1.915152582344     4.189096756079
H      2.067865704792    -0.306051439543     4.946322214207
H      0.376076093934    -0.846431314297     4.561097653729
Pd    -0.032279116272     0.561655463929     0.191358099872
C     -2.250958788302    -1.256394496649    -0.957633075043
O     -1.400097615535    -0.287300689273    -1.229748196865
O     -3.138785770282    -1.721003339510    -1.718543524066
C     -2.135028358073    -1.785164539263     0.538890677585
H     -1.092537483889    -1.689018832656     0.863877029967
C     -2.577792054494    -3.221902380329     0.711186360669
H     -2.488415124877    -3.516886839441     1.776956193244
H     -3.637310598404    -3.323433961035     0.395347369321
H     -1.949065339465    -3.890597757397     0.088484414525
N     -2.966092439859    -0.941650404882     1.420909538160
C     -2.571963681261     0.237601859563     1.915418943512
O     -1.455067891535     0.801006131868     1.695427180102
C     -3.492005640955     0.952631861192     2.820748304181
H     -4.404115872724     0.359664150585     3.006250888115
H     -2.956857919941     1.126737598235     3.769736367231
H     -3.753435283175     1.915041816973     2.348213345572
N      1.361866086834     0.491502580429    -1.280372757572
C      1.095457355135     1.156404265143    -2.448360962216
C      2.000642790320     1.092265543728    -3.491019502163
C      3.162536501120     0.359981371354    -3.366546122391
C      3.386612029223    -0.310360855191    -2.189926355386
C      2.430017570520    -0.221590776070    -1.163041401543
H      0.183663744711     1.732293376876    -2.549710841311
H      1.789943179761     1.626517181090    -4.402627156796
H      3.877453892321     0.308161652262    -4.183317465046
H      4.258794060364    -0.912479902135    -2.032449289021
O      2.709593756243    -0.929374736743    -0.064499551580
H      1.955496040662    -0.854596949546     0.578867405780

