# STO-3G

title

0 1
C      1.226523576555     3.830807452568     0.638326080151
C      2.397130232555     4.602050999318     0.452268909650
C      2.452157210269     5.616175503732    -0.522515007991
C      1.329986605352     5.882359696372    -1.331102121725
C      0.154934171372     5.126581973656    -1.155018661321
C      0.103885602297     4.110913404283    -0.179606824349
H     -4.113607976342    -0.328318061947     1.519084033747
H      3.266931436767     4.407402510910     1.077280683459
H      3.364178507745     6.194655505750    -0.650957865437
H      1.371173018418     6.663702699343    -2.086028064515
H     -0.717991692122     5.323926473509    -1.772873789268
H     -0.810835781003     3.540973212984    -0.037410751682
C      1.171346156623     2.743409518870     1.695597867321
H      1.901198284168     2.982425853853     2.483929858172
H      0.184189639467     2.740125358874     2.167173978739
C      1.463307315492     1.319834336314     1.155698171923
H      2.371131163737     1.306617712521     0.552150572092
C      1.514607180172     0.192299267129     2.114206188518
O      1.336465380248     0.396308817831     3.342936825982
O      1.498378839996    -1.107415032091     1.581239536611
C      1.423069595462    -2.175177930457     2.537263055134
H      1.428315169721    -3.151145603869     2.005039157912
H      2.297851151332    -2.152739468567     3.226781712564
H      0.483960754239    -2.109449740479     3.133731920081
Pd    -0.052154544048     0.605714498859    -0.086058778737
C     -2.411511135400    -1.277480869020    -0.774007563906
O     -1.587801634738    -0.369385210264    -1.257677498758
O     -3.187789792311    -2.019835572134    -1.428505325802
C     -2.379993218556    -1.358132054410     0.816468244617
H     -1.334691836938    -1.278873617155     1.137720964126
C     -2.973795302103    -2.631601511319     1.377632257040
H     -2.922728925372    -2.612538495282     2.485820446676
H     -4.035986308992    -2.712108597801     1.065329063006
H     -2.416217530553    -3.511323712620     0.996639637168
N     -3.114430240504    -0.219813299967     1.393738090675
C     -2.587409257230     0.989117098357     1.605820812030
O     -1.396277095930     1.342974088836     1.341282761111
C     -3.469297517593     1.990745089628     2.231512005712
H     -3.802461399909     1.588344963117     3.203427829627
H     -2.907613271853     2.930424355073     2.375635168489
H     -4.332337343067     2.156665109757     1.562961044934
N      1.272624355743     0.014652861628    -1.505750730322
C      1.248905316353    -1.316318019797    -1.831825490771
C      2.071601633908    -1.793677664261    -2.832537166553
C      2.902500221736    -0.937275838220    -3.522426550893
C      2.890160867468     0.391164654435    -3.184093281622
C      2.031682725364     0.833085960802    -2.159259202404
H      0.604584575277    -1.996868553698    -1.287451833865
H      2.049455575662    -2.841960018162    -3.082174779768
H      3.545634375760    -1.304647438450    -4.317820790872
H      3.497792681173     1.114556889932    -3.690741222279
O      2.078756152701     2.143041802629    -1.937946214162
H      1.440164759658     2.460278605291    -1.248547545705

