# STO-3G

title

0 1
C      0.931594735662     3.715503930842    -0.027262095501
C      2.238056231584     3.875833905236    -0.544211795721
C      2.450286864430     4.397453413519    -1.834061385765
C      1.353954761708     4.780230249203    -2.633655761406
C      0.047891171554     4.638764998534    -2.125869410513
C     -0.157108760538     4.110327903378    -0.836092203834
H     -3.967115295061    -1.205112530714     1.481323691876
H      3.094307601076     3.593254654024     0.067585383992
H      3.465210688144     4.513947880406    -2.210385617787
H      1.517183661038     5.190335775284    -3.627783868507
H     -0.806724716182     4.936895282822    -2.729273938051
H     -1.170452108204     3.997495601749    -0.455720636172
C      0.709263988347     3.140640371541     1.361475999150
H      1.271490780525     3.744675555472     2.094627968375
H     -0.348178917314     3.227208830927     1.638963926155
C      1.134671871490     1.655672678244     1.479581410192
H      2.129630510394     1.484836821346     1.072834581261
C      1.036039074297     0.986294567346     2.798555427882
O      0.568500563145     1.608482850666     3.790359516494
O      1.548648569485    -0.315348019337     2.932283301402
C      1.372167542661    -0.927390447069     4.217608610588
H      1.804478736075    -1.950802298328     4.201564774426
H      1.891761581379    -0.342100050373     5.010113104227
H      0.290240219084    -1.010762727494     4.469611922157
Pd    -0.121525426971     0.646370068316     0.185321925556
C     -2.259385399081    -1.238939203371    -1.004097898757
O     -1.478658461818    -0.211458344204    -1.265258425694
O     -3.083308098524    -1.785240403656    -1.785225731838
C     -2.143857781024    -1.735542918555     0.504581680257
H     -1.105855887457    -1.600652485827     0.832891154579
C     -2.542701079595    -3.182356841332     0.701160689711
H     -2.451042722513    -3.453807191454     1.772897686010
H     -3.595898301042    -3.322353151966     0.379849191843
H     -1.887963975099    -3.841565256169     0.095569616976
N     -3.007387954754    -0.903690486815     1.365940441694
C     -2.674963582245     0.300602337605     1.848743034569
O     -1.585234676240     0.916890356231     1.646141313104
C     -3.670771184005     0.954971298339     2.716987921931
H     -3.873090047780     0.282202270294     3.567380727845
H     -3.260219801637     1.915373389424     3.076273130660
H     -4.587232087965     1.123438371120     2.124897838253
N      1.305715287945     0.546044174621    -1.251100011242
C      0.985973490972     1.144756374674    -2.441089010210
C      1.860323724332     1.055927152501    -3.507700181887
C      3.045877741176     0.366253344995    -3.385295807396
C      3.332910831808    -0.233606233541    -2.183004774400
C      2.397557138700    -0.112675934811    -1.124364337388
H      0.055192198115     1.690304764952    -2.541587187162
H      1.603092873667     1.536683369593    -4.437015516260
H      3.733963738957     0.295411106833    -4.223608045780
H      4.237605006936    -0.788589563378    -2.051739160085
O      2.664995869735    -0.710034630049     0.059391067002
H      3.520873441222    -1.165770852095     0.128008749006

