# STO-3G

title

0 1
C      0.332726829389     4.235877876837    -0.234336036938
C      0.231003095949     5.065237154965     0.906179251302
C      0.841147993391     6.333155627533     0.941080674305
C      1.568120019903     6.800429329401    -0.171217833796
C      1.678049376334     5.986054487545    -1.315686383070
C      1.066979788616     4.718731945102    -1.342366423330
H     -3.803448394946    -1.670160024352     1.854333640772
H     -0.326411285483     4.709160035843     1.772432648807
H      0.747914781031     6.953924493706     1.829905994470
H      2.037808493476     7.781175703293    -0.147703914906
H      2.234581556774     6.339998019275    -2.181550982078
H      1.156568518932     4.093549455897    -2.229964056419
C     -0.285611819463     2.847035096923    -0.252109116509
H     -1.151154763433     2.798728861654     0.415015116952
H     -0.632673224790     2.601022294955    -1.260536991508
C      0.735103519957     1.753096636159     0.150443706513
H      1.577981495513     1.752035637143    -0.538931796432
C      1.240897478813     1.689797327508     1.541386614587
O      0.558808931527     2.156386909663     2.492132587802
O      2.376048482792     0.896955320148     1.786661451087
C      2.803790434144     0.825523036641     3.154375895972
H      3.710802694522     0.187490931867     3.225459994153
H      3.059657924582     1.838258733078     3.541506053902
H      2.010586099028     0.376735970605     3.794974114429
Pd    -0.186721980599    -0.066152801466    -0.198701070135
C     -1.613821432371    -2.851507823481     0.196444378482
O     -1.068290853988    -1.999789956910    -0.644622501820
O     -2.019742854247    -4.015215203048    -0.064986995455
C     -1.758802363353    -2.263483210942     1.665039166746
H     -0.836931712522    -1.718513630498     1.899435039906
C     -1.998542328073    -3.316962461163     2.724731792046
H     -2.087739191958    -2.833906605764     3.719617935046
H     -2.940707573135    -3.858499604013     2.499373768634
H     -1.157921023457    -4.040233989909     2.739473401516
N     -2.869350578725    -1.299418912116     1.728396694148
C     -2.735642183017     0.010781031168     1.496812852903
O     -1.672459940087     0.592237967497     1.122008104415
C     -3.931123953810     0.843973586432     1.720239367811
H     -4.244589542536     0.708492374692     2.769283654909
H     -3.673775067654     1.900855196556     1.530242902805
H     -4.722612457708     0.506233604697     1.028885769677
N      1.167697744106    -0.574738828510    -1.630465179105
C      1.778716341721    -1.789752609933    -1.462661312351
C      2.592115481463    -2.293827017784    -2.458191138532
C      2.779089434884    -1.594550067910    -3.629571701751
C      2.142025902926    -0.387278937908    -3.777495342461
C      1.318445297545     0.082393379158    -2.722592834970
H      1.639572676655    -2.343793578328    -0.541427271231
H      3.069742338650    -3.249927088975    -2.316537240263
H      3.413300809846    -1.992396166817    -4.417773127566
H      2.258634699585     0.183547445312    -4.674870186216
O      0.673933939017     1.263755603073    -2.876311593100
H      0.743979224134     1.672555792124    -3.756413507035

