# STO-3G

title

0 1
C      0.055329774729     3.687959578284    -0.353880408869
C      1.135460413516     4.546617957705    -0.669103323854
C      1.277794357571     5.091640918348    -1.958267846166
C      0.334590441037     4.790799651932    -2.961338206284
C     -0.754723472270     3.952763942979    -2.656206000996
C     -0.891621347247     3.410923316241    -1.363188037616
H     -3.715927021191    -1.692124065568     1.951702839905
H      1.863308178163     4.795093987489     0.102714897404
H      2.111594181772     5.755736960606    -2.177886482810
H      0.439356363196     5.213598013754    -3.958226471858
H     -1.497473019771     3.727127982381    -3.418975635607
H     -1.745540333979     2.776376073631    -1.135953767756
C     -0.048559004586     3.075281427447     1.028682097940
H      0.123950861332     3.862040545662     1.782461640929
H     -1.060013384959     2.698896602281     1.219150650898
C      0.965603708591     1.924335260088     1.249870586453
H      1.912851490375     2.113548761012     0.750607659162
C      1.263459458787     1.474225358847     2.632075511954
O      0.626095478485     1.946435660290     3.611011713942
O      2.269207287447     0.511100786351     2.807393434314
C      2.480899475222     0.062071639943     4.153267699918
H      3.291776332542    -0.698401911568     4.164545855780
H      2.787924196640     0.907461842822     4.810247324837
H      1.558603208352    -0.409352147125     4.562962091063
Pd     0.193140246030     0.198843804363     0.422493645814
C     -1.685845762955    -2.354677080597    -0.348127377281
O     -0.521081109598    -1.853123383182     0.038713349529
O     -1.867159206495    -3.434873174354    -0.951002373817
C     -2.927374935629    -1.474660419040     0.029878564448
H     -3.806093671604    -2.086901963197    -0.197497120240
C     -3.017207621757    -0.197316778416    -0.780301992098
H     -3.934967052020     0.357764488740    -0.494694760733
H     -2.137687532823     0.441151327972    -0.584803958248
H     -3.062578320297    -0.437095285243    -1.862994261215
N     -3.012842325794    -1.145204383800     1.470218186740
C     -2.281440970134    -0.308851785519     2.225494361421
O     -1.305019256194     0.403651818185     1.857599508800
C     -2.695871362968    -0.190078084574     3.637817636152
H     -2.607373801257    -1.185537697467     4.104935604286
H     -2.034446023500     0.533993961467     4.149091945926
H     -3.741506461165     0.162840953795     3.663535981429
N      1.703989828168    -0.009345215558    -0.965440100572
C      2.176622745623     1.038877412987    -1.712080720649
C      3.297854661398     0.881687120057    -2.499533846071
C      3.946113056132    -0.330861609308    -2.562898545869
C      3.431403828298    -1.378588251614    -1.848446673538
C      2.271861232678    -1.188548407655    -1.066661054218
H      1.677847674637     1.994976461245    -1.683819200005
H      3.663578362016     1.719370178273    -3.070945299550
H      4.830342530503    -0.458976185027    -3.181691412789
H      3.864314596490    -2.358749268818    -1.882946968604
O      1.821496067086    -2.277397902489    -0.489922636027
H      0.792629688799    -2.243219608329    -0.202473936972

