# STO-3G

title

0 1
C     -0.014367744068     4.209305882745    -0.023991596704
C      0.149239940532     4.800316788940     1.249518570349
C      0.746926920712     6.067153500727     1.389739952186
C      1.191837813322     6.768850266901     0.252601423157
C      1.030971584817     6.193036112938    -1.023283220331
C      0.434221600280     4.926038852575    -1.157160605186
H     -3.913596653739    -1.668645368078     1.785757195629
H     -0.197141615786     4.266476753253     2.133971479595
H      0.860509215622     6.506989894081     2.378480119435
H      1.651642931747     7.748940704081     0.357507104762
H      1.366308659054     6.730400764308    -1.907992414524
H      0.311758520874     4.492077735475    -2.149179432429
C     -0.610378996013     2.818877424602    -0.163157733785
H     -1.241493473057     2.580858668583     0.696580597152
H     -1.263365218035     2.758338142834    -1.042582652936
C      0.493234547771     1.746269207728    -0.320757171420
H      1.062642324304     1.944859006121    -1.228970480505
C      1.429513671481     1.540628059252     0.802567425740
O      0.989157174663     0.914942598871     1.802787788443
O      2.806469928266     1.570661823528     0.528496677107
C      3.670776100955     1.220483998325     1.618153304290
H      4.728988630498     1.304332242531     1.288440692590
H      3.520399977994     1.909625354985     2.480050646702
H      3.493436689828     0.170784841502     1.944907833537
Pd    -0.354925408531    -0.157644846525    -0.390393073732
C     -1.278112758199    -2.792170713114     0.901151965534
O     -0.956489140696    -2.224735393446    -0.246168064834
O     -1.232351002213    -4.019439676680     1.170198230229
C     -1.789299417012    -1.743261019536     1.984631440875
H     -1.052397927606    -0.932627145607     2.044519684740
C     -1.984216640800    -2.332484185314     3.364661893554
H     -2.349327650989    -1.547593032423     4.058688699211
H     -2.731730688473    -3.150959121475     3.315006921500
H     -1.023960005534    -2.739248087724     3.742528715692
N     -3.070932061459    -1.156462543584     1.555510062952
C     -3.183454723166    -0.089854688260     0.759411972138
O     -2.226017105351     0.567496307067     0.244028849252
C     -4.553610269064     0.381277807735     0.486239126279
H     -5.029182236533     0.615844221935     1.454034635105
H     -4.509568636857     1.282235722642    -0.149810856197
H     -5.100500608512    -0.428646962394    -0.027922905674
N      1.306341436933    -0.813902577999    -1.351537100829
C      2.130532492719    -1.742248263626    -0.773533617923
C      3.206120081404    -2.236967584307    -1.485150651168
C      3.441975322407    -1.819658607311    -2.779362221724
C      2.580256407833    -0.908734332646    -3.337398882097
C      1.497827701305    -0.438114277370    -2.573594924344
H      1.951385649601    -2.066922974165     0.245191933888
H      3.856030470036    -2.963592338133    -1.025303292321
H      4.282779888076    -2.211270399871    -3.345848897801
H      2.691705869833    -0.558782043798    -4.344212927946
O      0.678945287312     0.410678032383    -3.201904694889
H     -0.078486040061     0.643100734198    -2.596105160923

