# STO-3G

title

0 1
C     -0.590782968109     2.240893596756    -2.002421351420
C      0.184536010931     1.144164242094    -2.459654559590
C     -0.332892539145     0.291792919869    -3.475151275375
C     -1.588996786457     0.555494712395    -4.045228505524
C     -2.339544344198     1.671242369753    -3.605372839596
C     -1.851143447650     2.500741912405    -2.579481237707
H     -0.202451839514     2.878581786674    -1.216514272506
H      1.220247903510     1.032998481177    -2.152491249969
H      0.274707742971    -0.537086490148    -3.828362804533
H     -1.975107190317    -0.080604151855    -4.837572973029
H     -3.304533294667     1.887740514755    -4.058543442241
H     -2.444340036755     3.341116113921    -2.226772741144
C      1.039590128126     2.527062939914     1.233324940748
H      1.063965869522     1.877793362635     2.102284390267
H      0.109608670801     3.077041334465     1.106063429839
C      2.067804974334     2.636818506906     0.362484396393
H      1.991602166234     3.297862997072    -0.492858845118
C      3.331540189821     1.889927326819     0.462172446598
O      4.251087790032     2.151241885456    -0.358938580225
O      3.534038098382     0.987884117542     1.526444120427
C      4.775677512390     0.269548557258     1.500089848405
H      4.818002144699    -0.430030266876     2.361116214106
H      4.866087098306    -0.328655786406     0.563934408805
H      5.638951245794     0.968849953112     1.573140684336
Pd    -0.225518852500    -0.041805055641    -0.362259019553
C      2.085014606651    -1.686649065107    -0.058322647410
O      1.713243238159    -0.544358930133    -0.673366758412
O      3.172212014719    -2.265698301723    -0.241419324373
C      1.002877256424    -2.244671530537     0.930915969764
H      1.545920333390    -2.714515271145     1.760682210775
C      0.125831810998    -3.288455518783     0.277636453126
H     -0.613524148943    -3.665007653203     1.014396221157
H     -0.420073802217    -2.840349744640    -0.576971159920
H      0.744901022843    -4.136347562223    -0.083646345923
N      0.128028629416    -1.122605521588     1.320981270610
C     -0.080616433280    -0.649714947832     2.532605253437
O     -0.700819511856     0.449965703288     2.816450365368
C      0.423617490921    -1.398233907410     3.703346012848
H      0.015961176476    -2.422582593734     3.667407798259
H      1.526328253339    -1.385943931675     3.673918889586
H      0.082885584251    -0.898883728617     4.630021476877
N     -2.245006010015     0.270538436531    -0.177398418776
C     -3.020341640377    -0.405219925537    -1.079539543771
C     -4.352341642093    -0.078427408956    -1.228533166502
C     -4.912868624488     0.931135280284    -0.477957748986
C     -4.123686849232     1.581619507817     0.433068069799
C     -2.768735301044     1.207876098068     0.579850439836
H     -2.581080210960    -1.186350506212    -1.688662004150
H     -4.950723504032    -0.608540253810    -1.950494244367
H     -5.959078702381     1.198938927421    -0.598678440977
H     -4.502750300939     2.361677412779     1.061998267118
O     -2.105158623739     1.847776694718     1.495527531781
H     -1.319647782593     1.194005005197     2.076268379851

