# STO-3G

title

0 1
C      1.719578780663    -1.021163500124    -1.861206555550
C      2.356263028788    -2.113630796680    -1.229755374017
C      3.755160502164    -2.112659066217    -1.088383350030
C      4.514812673401    -1.029343288891    -1.573690811426
C      3.878011332274     0.062166491841    -2.200417006586
C      2.480377952191     0.066523988139    -2.348159011343
H      0.658828685805    -1.121791470992    -2.146590070315
H      1.757310903630    -2.923978716025    -0.828500609416
H      4.245263321448    -2.942104495846    -0.584952033552
H      5.595902893258    -1.030340054740    -1.455303920994
H      4.466069386696     0.899296654464    -2.567433012960
H      1.996804995515     0.908855602486    -2.836014001409
C      2.324693291787     0.381865439026     1.381478688556
H      3.162789053742    -0.082129557374     0.870353680792
H      2.130788443574     1.426494839993     1.154333854218
C      1.519367063789    -0.296298225753     2.233324456227
H      0.681167355971     0.213939117688     2.685616707645
C      1.649354124703    -1.721664319587     2.576278010284
O      2.673699416244    -2.369897884115     2.226354724932
O      0.650479659105    -2.306958911174     3.376529437792
C      0.741053033156    -3.729708393992     3.535668047920
H     -0.108353374424    -4.087846620385     4.155058554429
H      0.683144598117    -4.240514173317     2.546453577077
H      1.690817408575    -4.012925613577     4.043000967900
Pd    -0.248542235124    -0.403475688697    -0.396792045977
C     -1.420429793144    -2.759993458031     0.706376112499
O     -0.229640017907    -2.317971705351     0.244974371909
O     -1.657359379220    -3.944954802957     1.004265916566
C     -2.500306478408    -1.631287062194     0.832213369042
H     -3.107816001055    -1.872135818642     1.713898965436
C     -3.405378773381    -1.579735828372    -0.377757598153
H     -4.162202192717    -0.779903282556    -0.241105217403
H     -2.809376467241    -1.355107855448    -1.284806958961
H     -3.923867545514    -2.552851751579    -0.508663163962
N     -1.795287297599    -0.336524688362     0.908752528178
C     -1.885415818718     0.577879379968     1.853502749560
O     -1.115076430484     1.608549133996     1.973585832194
C     -2.922697187020     0.445259838772     2.898144000989
H     -3.908187046289     0.372398850685     2.408095115958
H     -2.692452426157    -0.446607900518     3.505473940292
H     -2.900208628143     1.339590723355     3.549208810711
N     -0.441523349405     1.432262257069    -1.316075804399
C     -0.867171271867     1.378822014488    -2.616088159535
C     -0.737012165588     2.481540606301    -3.432904318247
C     -0.202381384072     3.654314229962    -2.946857106299
C      0.172886852018     3.701712623500    -1.630933599463
C      0.011334559932     2.560867726353    -0.813485517875
H     -1.271010598195     0.455075477201    -3.013647182013
H     -1.054029799587     2.422087081167    -4.461557190027
H     -0.096142981945     4.525873700722    -3.587515865654
H      0.564804477905     4.592460717777    -1.181586899935
O      0.326431423218     2.717668764231     0.434538163245
H     -0.297279826719     2.084902587532     1.183834900482

