# STO-3G

title

0 1
C     -0.469741367673    -0.603109501267    -3.593326386821
C      0.790226694480    -0.198064802515    -4.117008149460
C      0.842942835983     0.647834633642    -5.255178028239
C     -0.344351140666     1.077211425931    -5.864164727193
C     -1.601803350258     0.676618221256    -5.341829914159
C     -1.666084260137    -0.158829147034    -4.221919095172
H     -0.512249444739    -1.367640023306    -2.823430906438
H      1.696592818953    -0.615837484435    -3.690798812592
H      1.807477096843     0.933137158044    -5.666757085401
H     -0.308124601997     1.711980160253    -6.746476497261
H     -2.518195764163     1.014555038446    -5.819624045877
H     -2.629740135631    -0.475548868809    -3.831476835263
C     -1.987132566258    -1.052683820133    -0.345987151191
H     -1.239323444549    -1.840132803006    -0.284612678233
H     -2.137403401185    -0.594226321149    -1.318761784473
C     -2.692078637271    -0.588649657599     0.710288447098
H     -3.381933727556     0.230076251868     0.561381069210
C     -2.573823695323    -1.075919089855     2.093316291676
O     -1.734721161193    -1.973825247955     2.378314094703
O     -3.361746852479    -0.474734324720     3.090909614093
C     -3.199874449850    -0.995268797806     4.417775050066
H     -3.874006229270    -0.448664969358     5.111911737928
H     -3.466560921634    -2.076051630789     4.453439833305
H     -2.152471715736    -0.860764245010     4.770843767203
Pd     0.295853238014     0.744601811511    -1.702479573033
C      2.418555207415    -0.582135984578    -0.414950627670
O      1.492547513273    -0.822560482837    -1.367446991017
O      3.553883279895    -1.092104154823    -0.406709605336
C      1.922494637457     0.343262464890     0.736717089691
H      2.777361358876     0.966499088978     1.031904295323
C      1.501378158136    -0.533507601242     1.907452244778
H      1.262376062349     0.063969446480     2.805691860811
H      0.608065951085    -1.127260095158     1.620940590845
H      2.320992080196    -1.233305858050     2.176602058631
N      0.753671292238     1.146329741001     0.270295885497
C     -0.013493591660     1.930983353698     1.009747565302
O     -1.227535098973     2.264389611044     0.734701360948
C      0.503090006270     2.562826708174     2.245359514462
H     -0.054576363246     2.140353677581     3.098750392197
H      1.585843003940     2.413499472404     2.358631337457
H      0.302183189212     3.647082747769     2.175018295750
N     -0.732400553792     2.423852567533    -2.328060385854
C     -0.083831611327     3.166739550614    -3.276819975096
C     -0.784955498041     4.078081566015    -4.040353962113
C     -2.140439519311     4.246479416385    -3.860210648876
C     -2.764767396802     3.513671588444    -2.885792889732
C     -2.012120624734     2.610347639340    -2.103473815629
H      0.977864664584     3.024047908208    -3.440060491276
H     -0.267030110362     4.647025168320    -4.794192440063
H     -2.698187544434     4.955618081363    -4.465831010638
H     -3.808685475117     3.619514899426    -2.670677987881
O     -2.652830809923     2.003587626877    -1.144896757123
H     -1.943060050939     1.954211831756    -0.214450585810

