# STO-3G

title

0 1
C     -1.222611103055     1.516987502381    -2.047041188642
C     -1.668503486909     2.151931817561    -0.851610000473
C     -3.001540546662     1.949976774871    -0.392614682695
C     -3.870679279887     1.130547240509    -1.117915220438
C     -3.432465235596     0.519681475190    -2.319558382057
C     -2.126547655274     0.710714515488    -2.781338913950
H     -0.223883270085     1.707012751020    -2.429553138124
H     -1.056154599992     2.928748841679    -0.406660363600
H     -3.341976651421     2.453665337620     0.508512451878
H     -4.885103523531     0.962282044319    -0.766261220301
H     -4.114429414050    -0.113830324353    -2.879968511887
H     -1.797944707775     0.222932737867    -3.693356809088
C      1.239350773474    -0.159349157751    -3.636021943304
H      0.402516609851     0.096638986671    -4.281261183505
H      2.007847389474     0.599075838044    -3.507670969275
C      1.328616170306    -1.331236720827    -2.969023569274
H      2.180820643749    -1.507352392715    -2.330332554925
C      0.311863419855    -2.392719552765    -2.967058843062
O      0.495167136725    -3.399032355203    -2.227581197740
O     -0.800505952652    -2.302014563027    -3.824163254859
C     -1.842994001892    -3.258907261825    -3.590968149141
H     -2.667145576103    -3.090020064022    -4.315727970407
H     -1.467668470725    -4.298641889585    -3.723065865141
H     -2.260914158311    -3.142725864888    -2.564556770823
Pd    -0.253288807639     0.268389195745    -0.100085651250
C     -1.495297818642    -2.277539583820     0.198483653398
O     -1.558445850159    -1.187856936866    -0.592346856417
O     -2.345439351621    -3.189075943186     0.199355227023
C     -0.248648330124    -2.301934855115     1.148680785579
H      0.087637226969    -3.345769146722     1.194426309188
C     -0.601749023329    -1.843632091831     2.545874198605
H      0.300006365681    -1.886250350157     3.190551975092
H     -0.970905131586    -0.798744937919     2.514509490798
H     -1.388064187857    -2.499637868853     2.975029769962
N      0.752772755415    -1.352271302447     0.616566885109
C      2.013227741555    -1.603171671534     0.350476535286
O      2.828261066555    -0.807451035639    -0.280342905352
C      2.617176281879    -2.884395328510     0.770327994581
H      3.698633184900    -2.868458747117     0.541462426053
H      2.471054639200    -3.002334877926     1.856554002529
H      2.142155385927    -3.700510897767     0.195865912385
N      0.998567707929     1.754655654571     0.589493735832
C      0.598015782803     2.466292171707     1.687107926605
C      1.232481453318     3.646954227479     2.011387377631
C      2.287507213780     4.108267038293     1.253495022549
C      2.704408003267     3.355138645887     0.187667816441
C      2.047496806361     2.140216943997    -0.110513335813
H     -0.245367857632     2.122026709847     2.274391372169
H      0.896350752223     4.213731084707     2.864319106442
H      2.789190042965     5.038643137216     1.506421612608
H      3.542469229219     3.636602762361    -0.417821807750
O      2.544311504651     1.430936512866    -1.075332883257
H      2.588452904995     0.228167917686    -0.739326399206

