# STO-3G

title

0 1
C      1.622353211846     2.692849991396     2.945482156131
C      0.728130666860     3.561175149103     3.602689169863
C      1.221055029772     4.542909768834     4.485843422247
C      2.607527439485     4.654322917179     4.713287953753
C      3.501584093448     3.784631331307     4.056358232211
C      3.009226796837     2.804950422619     3.171539638559
H      1.250766808691     1.932572888605     2.266505185542
H     -0.340654864810     3.467873365848     3.427673962496
H      0.531148222013     5.213155684600     4.993990326545
H      2.987490833814     5.410332637308     5.397077982850
H      4.571564839493     3.868249522496     4.233404508297
H      3.686650641401     2.131510347934     2.652968007412
C     -1.261848758233     0.717341600029     2.444455868021
H     -2.106133679533     0.630951386382     3.122610018715
H     -0.290942934092     0.421355539037     2.833464080083
C     -1.372445742497     1.163194669965     1.172477363332
H     -0.491295080231     1.207432768445     0.550342572941
C     -2.625938379233     1.578471909723     0.524940282691
O     -3.714936667518     1.514430553607     1.156640035335
O     -2.593020441948     1.929172431333    -0.837959235418
C     -3.855514587110     2.276993575845    -1.424274688644
H     -3.708365958118     2.539460671748    -2.494021159501
H     -4.566310520296     1.420835024527    -1.371102900489
H     -4.301890133121     3.157927022437    -0.908794591154
Pd     0.730206933401    -0.419929288654    -1.801501720483
C     -0.536761316905    -2.937260242367    -2.224978656204
O      0.388515540995    -2.107873376462    -2.769842245134
O     -0.972344766028    -3.954100727955    -2.785427179595
C     -1.010138091294    -2.463677597383    -0.815728513818
H     -1.154669020534    -3.364001861388    -0.205732478025
C     -2.320035654556    -1.711360152357    -0.883204111383
H     -2.638819056743    -1.425602255563     0.140301889513
H     -2.195513345991    -0.792029310420    -1.490870438635
H     -3.104922032166    -2.350163851759    -1.339824238874
N      0.009524446353    -1.534411673326    -0.280027745438
C      0.596269708549    -1.562318899782     0.902925917530
O      1.550615356501    -0.790621971243     1.284565257657
C      0.112129191746    -2.519481295046     1.920760938054
H      0.653861974700    -2.342339445559     2.868292336161
H     -0.966453732355    -2.347176356502     2.076026258796
H      0.321195208728    -3.546065106364     1.573793219707
N      1.103513611007     1.514347390487    -1.195325788359
C      0.409659969253     2.470503867771    -1.890183506413
C      0.814781967353     3.787155410794    -1.846783882103
C      1.913606092517     4.159525998697    -1.104503642567
C      2.582364942389     3.193759498024    -0.401835054896
C      2.130359669530     1.857612447179    -0.440967946548
H     -0.444581757987     2.185662683418    -2.493245493810
H      0.264606734549     4.529958461604    -2.400833987573
H      2.233390961582     5.197510939971    -1.064720913830
H      3.417478969819     3.428459737873     0.227897049860
O      2.759693679954     1.035065033464     0.335340308960
H      2.201184003267     0.108372642891     0.688919053973

