# STO-3G

title

0 1
C     -1.315253162960     1.632151614589    -2.129899510648
C     -1.509217137063     2.297376249935    -0.885403348723
C     -2.770521852290     2.218991508526    -0.225938956731
C     -3.814150499737     1.487236958749    -0.801936545670
C     -3.621040439446     0.845713953114    -2.049199424267
C     -2.386187642892     0.915611295329    -2.707485657026
H     -0.358721769372     1.707967967966    -2.638102026951
H     -0.766179699592     3.014236135412    -0.551162597440
H     -2.922636917727     2.752393009222     0.709157831215
H     -4.774256217494     1.412710826568    -0.298361781316
H     -4.435380871803     0.279131395501    -2.493062074295
H     -2.248709829991     0.396446029563    -3.650127387902
C      1.633565634333    -0.389637653837    -3.230442057489
H      2.343492274802    -0.900937245765    -2.589420431085
H      1.901163641535     0.630492814039    -3.493148157599
C      0.474706641294    -0.952475343219    -3.638433506659
H     -0.201662406954    -0.396623219978    -4.272948984721
C      0.006289804643    -2.297688284698    -3.265096676293
O      0.689826198254    -3.013817785843    -2.479119539695
O     -1.146247912426    -2.798745219143    -3.895623858470
C     -1.589455466123    -4.090607130652    -3.458376525349
H     -2.506740764472    -4.373244502753    -4.017419985865
H     -0.811079635913    -4.863332718383    -3.648270156963
H     -1.842006315070    -4.075293149197    -2.374582475865
Pd    -0.230598342986     0.362557021453    -0.126162975150
C     -1.494491949119    -2.183194988095     0.030562002413
O     -1.549460778344    -1.056256059534    -0.706141424327
O     -2.349397158803    -3.090116012026    -0.009063434532
C     -0.246131083717    -2.268542230942     0.974519440956
H      0.077268997946    -3.317419443375     0.968684991665
C     -0.589168486356    -1.876210869038     2.393969849907
H      0.314487599158    -1.962093684206     3.031792553904
H     -0.944557057054    -0.826378804680     2.416228218699
H     -1.382283467406    -2.542796924585     2.793089636566
N      0.763334719852    -1.306272105336     0.488746789699
C      2.009727794336    -1.566717935713     0.169169607830
O      2.838189902730    -0.737642109978    -0.399322010868
C      2.592165059556    -2.889280016822     0.477183849986
H      3.666861865628    -2.881178206579     0.218676351774
H      2.471549376523    -3.084522548212     1.555110142639
H      2.083126398597    -3.647341390898    -0.145145908572
N      1.015816659583     1.788439958360     0.681336352860
C      0.586245864911     2.432250674131     1.809155554645
C      1.220835897027     3.582096600597     2.229307909490
C      2.303168141494     4.079959059270     1.535905570460
C      2.743550179957     3.395977570050     0.433511974918
C      2.084118747016     2.211608038855     0.033772694259
H     -0.276375995534     2.057960638586     2.348109849398
H      0.864148144688     4.095048444747     3.107550070516
H      2.805399916733     4.985988120217     1.864708752783
H      3.598577688956     3.710795192301    -0.130444081528
O      2.592531125536     1.574439653156    -0.972275836663
H      2.616008777375     0.333558709581    -0.744558678425

