# STO-3G

title

0 1
C      2.962425351005    -1.095384818950    -0.586038587962
C      3.144515416288    -1.760642594814     0.657778606938
C      4.357126046597    -1.603026498509     1.372685119613
C      5.385379045598    -0.808138185862     0.843848667318
C      5.210524484133    -0.147095503603    -0.399080938309
C      4.010386390955    -0.285831188883    -1.105408668827
H      2.106162940227    -1.323934110298    -1.217233409591
H      2.367480683447    -2.427390815015     1.016762543148
H      4.494922247485    -2.124158025742     2.316382407776
H      6.325792232851    -0.703922188830     1.380305460312
H      6.012065832987     0.465150415003    -0.805488909948
H      3.877533987357     0.221699810260    -2.056617033019
C      0.118138719485     0.282151537688    -2.532651839723
H     -0.299844237078    -0.717230014150    -2.632300530747
H     -0.344407597765     0.926845997198    -1.792564785651
C      1.172951777210     0.726365461023    -3.254787190600
H      1.548977287754     1.723003195586    -3.067425924956
C      1.886538909250    -0.057257980585    -4.276223748826
O      1.518363619910    -1.233886407993    -4.540547970605
O      3.036229524813     0.497316778271    -4.866228444093
C      3.731962286855    -0.345599539309    -5.795377682273
H      4.615304622395     0.197111152872    -6.195285867674
H      4.091049573378    -1.273658415062    -5.294729016644
H      3.074026879816    -0.618542978701    -6.651541849849
Pd     1.088640129487     0.083293724139     0.497794409852
C     -0.899755884714    -1.764782151425     1.334362746693
O      0.247422866452    -1.727743154233     0.619105777043
O     -1.284798719868    -2.760008818484     1.973686601122
C     -1.746821824390    -0.472017400117     1.197668564194
H     -2.313791289755    -0.337763875601     2.129238789371
C     -2.716980253206    -0.652121683679     0.038769218184
H     -3.337372237423     0.247642526429    -0.124684701920
H     -2.149340474083    -0.855038164861    -0.892350388164
H     -3.391344349067    -1.511727585243     0.239252202555
N     -0.855669112554     0.679391470386     0.891090691513
C     -1.242831844690     1.946837546552     0.874818920654
O     -0.654874943755     2.894145092740     0.232099823392
C     -2.389708900268     2.375078884192     1.711578860067
H     -2.481035901818     3.475954726221     1.655908689778
H     -3.319847443251     1.921889825724     1.343098078116
H     -2.186110950925     2.081359980310     2.756170119761
N      2.234564725154     1.804332549585     0.653341617198
C      3.211410344606     1.688218709390     1.606457030278
C      4.275104765646     2.567452609077     1.619637124700
C      4.372000739545     3.562298469709     0.672606865267
C      3.369704815046     3.678840028585    -0.253209302027
C      2.278347768980     2.783186202144    -0.216124935921
H      3.155608587202     0.893849365824     2.341088910499
H      5.045257481303     2.454521500039     2.364178768005
H      5.214666249267     4.248349400595     0.670121865736
H      3.365492250911     4.450681890874    -0.996047261429
O      1.326392538514     3.011222188325    -1.080616806390
H      0.324153406798     2.840965649776    -0.565361367890

