# STO-3G

title

0 1
C      1.306147983232    -1.209557858446    -1.534769371967
C      1.582654782625    -2.528974755171    -1.109490745133
C      2.889745462239    -2.873682443427    -0.730064244646
C      3.911101739428    -1.901203642636    -0.754784949303
C      3.630405689159    -0.582225811762    -1.162192983996
C      2.329061134960    -0.235669827103    -1.563483386179
H      0.344334194838    -1.022610338830    -2.042336926468
H      0.780437571789    -3.257384119184    -1.058126339713
H      3.108064229334    -3.885939763449    -0.399820617857
H      4.920188490354    -2.164532767633    -0.445438801581
H      4.417056955091     0.168044803385    -1.163273433866
H      2.116700496865     0.778996159056    -1.889588314223
C      1.264960117757     0.109220029855     2.144663226827
H      2.042119901911     0.864594769740     2.238564325698
H      0.265440066039     0.494255016100     1.980697764506
C      1.485580895068    -1.223057414977     2.220285988873
H      0.663076829130    -1.907680923132     2.065339913698
C      2.794980375758    -1.846055777016     2.476963722621
O      3.809932020894    -1.126404368005     2.690166497381
O      2.870621217605    -3.249332211544     2.553166977778
C      4.170538251733    -3.793573650884     2.818595924786
H      4.104962455563    -4.902200273629     2.850847718950
H      4.888548203102    -3.508630807042     2.016908858091
H      4.553656711071    -3.438275586548     3.802026077790
Pd    -0.719986302209    -0.297055606999    -0.411192675159
C     -2.359763492686    -2.385693118202     0.613845301353
O     -1.060528332035    -2.147893366032     0.318473262779
O     -2.816272464634    -3.507206531769     0.897341022653
C     -3.259931482643    -1.103338128952     0.566061135466
H     -3.996141904336    -1.204247175228     1.373642128364
C     -3.997902861694    -0.979862494927    -0.747707701254
H     -4.632508011404    -0.069755650105    -0.732823838983
H     -3.272653627120    -0.894854184614    -1.581504681704
H     -4.642216499214    -1.869766429787    -0.908869590922
N     -2.376581634027     0.071651950048     0.687331514299
C     -2.434016050253     1.043424322174     1.578217702368
O     -1.530150247235     1.945887492312     1.757638518766
C     -3.609103120173     1.140909544974     2.469822224183
H     -4.518463173926     1.195513314533     1.847717164575
H     -3.615531974900     0.264070421305     3.138595939730
H     -3.526111452262     2.059434132394     3.081327365660
N     -0.503876283925     1.506018358489    -1.401542279438
C     -0.783982583741     1.476820984409    -2.741644515068
C     -0.374902170890     2.509559308757    -3.557581678048
C      0.299254438234     3.590868201101    -3.034929296929
C      0.526889230976     3.624344348513    -1.685441250792
C      0.078237485298     2.560992216389    -0.870914178857
H     -1.296440627123     0.621864273966    -3.166983638670
H     -0.579677651117     2.465388139949    -4.615039985259
H      0.627722148284     4.405528576350    -3.675095297021
H      1.016890696702     4.451125821082    -1.210379025233
O      0.275190734278     2.714007550871     0.401607792044
H     -0.524958782977     2.244735736272     1.073037396013

