# STO-3G

title

0 1
C     -1.435065524452    -3.598500636296    -0.624002060329
C     -2.229281171268    -2.636485997559     0.053788632455
C     -3.488033227858    -2.256041142205    -0.480724879937
C     -3.958505831283    -2.852087459755    -1.659601733896
C     -3.180230337000    -3.837945145209    -2.316915478412
C     -1.924125613700    -4.204793684793    -1.806618654923
H     -0.496390333224    -3.905449377673    -0.176815192947
H     -1.943242774651    -2.306354270452     1.049861789585
H     -4.094951143742    -1.520444571573     0.041881101551
H     -4.930725369017    -2.573410870652    -2.059352654425
H     -3.566187991160    -4.318941075095    -3.212939791969
H     -1.333805059523    -4.970182092573    -2.304558850441
C      1.871976739459    -2.401815377894    -1.962725677009
H      2.543912788859    -2.369665174612    -1.108136831976
H      1.149078647279    -3.211516878585    -1.959224347371
C      1.927882504821    -1.501041802440    -2.973141473319
H      1.229351424189    -1.551473543415    -3.797008671633
C      2.885177174400    -0.385064893424    -3.049730784198
O      3.833896559660    -0.309075359999    -2.219613069417
O      2.787248351468     0.509084272912    -4.129801331258
C      3.651114969108     1.652122591631    -4.070574353183
H      3.475915092507     2.292024837367    -4.961754636558
H      3.436209282601     2.258819886046    -3.160947991683
H      4.720642545597     1.342205413196    -4.068227710062
Pd    -0.104375677251    -1.129065083739    -0.227646325597
C      1.438296466288    -2.101094724747     2.037679031774
O      0.525806359093    -2.466423576122     1.117405168250
O      1.917294379554    -2.884762968164     2.878077441559
C      1.820500767096    -0.603184763832     1.970475482681
H      2.891086353210    -0.551496062347     2.212838244374
C      1.053575135689     0.201906064053     2.999816283623
H      1.380268315383     1.261392718085     2.973799585236
H     -0.031529802176     0.161762216374     2.770268524728
H      1.230819609186    -0.205408975252     4.017586792101
N      1.478931055887    -0.047456616112     0.639485294241
C      2.141717884855     0.926987218472     0.049232423381
O      1.682077811704     1.599069287619    -0.963225002794
C      3.498104193498     1.305631494533     0.503834364605
H      3.445074108765     1.679600381432     1.538659396433
H      4.147912893649     0.417989546414     0.409085755690
H      3.889467884281     2.101376016110    -0.156649908928
N     -0.951713535199    -0.027756320644    -1.773197289495
C     -1.495754935456    -0.816374210658    -2.751578842516
C     -2.431523191179    -0.300974388767    -3.624112286681
C     -2.826233502622     1.013682602640    -3.530800421312
C     -2.232779264130     1.803163096204    -2.583779174172
C     -1.252698066093     1.252837770543    -1.726426206291
H     -1.186899720712    -1.846407988903    -2.843979585645
H     -2.862382804216    -0.941749161709    -4.375222870102
H     -3.568310720465     1.422310726960    -4.211369909811
H     -2.452661566045     2.847661452022    -2.492793528877
O     -0.651391803074     2.096296785602    -0.945479474241
H      0.502258133219     1.831127808738    -0.902528377308

