# STO-3G

title

0 1
C      1.419319948963     2.665190245740    -1.044209618280
C      2.796483831904     2.773193715844    -0.753283586351
C      3.600172101648     3.652581547440    -1.510221560981
C      3.039846420991     4.417908785768    -2.551298500238
C      1.665763176057     4.303094224074    -2.838673027162
C      0.852838257992     3.428197353618    -2.087202877598
H      1.353591246747    -1.285031363794    -0.245910641467
H      3.240904232629     2.166418341440     0.031415430076
H      4.661870902268     3.733883766728    -1.284971992094
H      3.663840162215     5.095329112384    -3.129898795142
H      1.222888510387     4.891030930936    -3.640595428389
H     -0.208207688299     3.347857410433    -2.320409905745
C      0.473732486331     2.475364556022     1.914273187097
H      0.155228360578     1.755224618239     2.662030236212
H      1.521427689515     2.753200762201     1.923945757137
C     -0.451537981908     3.179705613058     1.139005902066
H     -0.110334113038     3.988181153595     0.511995714267
C     -1.915665823631     3.092964714811     1.282567220151
O     -2.634733414710     3.735167337335     0.474609260363
O     -2.480950479597     2.293381961988     2.291431621434
C     -3.914392286292     2.300792203960     2.362649844893
H     -4.247481492675     1.651861863047     3.200937794012
H     -4.296894794707     3.329905415054     2.550933420774
H     -4.359670188412     1.908179139195     1.419940559063
Pd     0.313480762470     1.369439438705    -0.003954179464
C      1.865660855870    -0.780849846593     1.583208684198
O      1.375014537772    -1.674801520981     0.664122073190
O      2.636994116863     0.146602835665     1.262968489658
C      1.318512355897    -1.007204754880     3.007943599614
H      1.707924060941    -0.173377348066     3.609044825796
C      1.841981733396    -2.292267584271     3.610518922630
H      1.512982006148    -2.369986221024     4.667794567175
H      1.425851606957    -3.152568751162     3.045580089864
H      2.950400392537    -2.320002649783     3.569815329969
N     -0.132910046322    -1.063101525059     3.151094014617
C     -1.035439901666    -0.676515099127     2.328721119771
O     -0.910208144990    -0.061669375922     1.117435872870
C     -2.414724732635    -0.956737149179     2.750568777822
H     -2.504312374942    -2.047962235785     2.891782047905
H     -2.578854797950    -0.434801343831     3.708264225009
H     -3.127404355803    -0.604663866015     1.984773243831
N      0.338087873947    -0.016408101339    -1.651436327240
C      1.267593407241     0.061280812495    -2.657125685688
C      0.979500367652    -0.434370787766    -3.911962858952
C     -0.232194245454    -1.031711939988    -4.172631281745
C     -1.146822506936    -1.121810765513    -3.158890921624
C     -0.832194300155    -0.605046342544    -1.882208032291
H      2.238699033810     0.501736204298    -2.467107412765
H      1.722322136358    -0.362876364081    -4.689145050066
H     -0.454591397178    -1.429845850165    -5.158997874257
H     -2.101552687584    -1.588284065593    -3.294483531056
O     -1.759594560551    -0.750130178447    -0.989738072272
H     -1.461540897307    -0.456198828646     0.119888360941

