# STO-3G

title

0 1
C      1.149010145848     2.488414391601    -0.814195134079
C      2.453314852111     2.171289068818    -0.371366807180
C      3.530856223067     3.037468283745    -0.648553794181
C      3.319318451641     4.221583168192    -1.380771375862
C      2.024083905416     4.532392530121    -1.835637842563
C      0.941108291426     3.671708184440    -1.555523386084
H      1.205254748900    -0.040157815181     1.860642332869
H      2.646385498511     1.248889870352     0.175451305447
H      4.528510675990     2.781596980099    -0.296715611869
H      4.150981062227     4.888172336249    -1.596352114907
H      1.849804251292     5.442623945071    -2.406096735687
H     -0.049067341844     3.932675605678    -1.922402308915
C     -1.656379919720     2.807819753762     0.456304000090
H     -1.499626565098     3.733487045166    -0.085694564328
H     -2.584956358206     2.287736793519     0.258983839776
C     -0.846800012732     2.440633458250     1.531268881233
H     -1.096774281456     1.579593193658     2.133411936256
C      0.229473059735     3.292044628937     2.074864030995
O      0.880085610998     2.897320375522     3.076031067054
O      0.456916194045     4.559731365343     1.509057232815
C      1.613780665980     5.257910544515     1.989136005813
H      1.702037422630     6.230857268187     1.460575434665
H      1.532254348637     5.457814139319     3.081710430056
H      2.538578841625     4.670813383803     1.786949259442
Pd    -0.335726339199     1.220848877464    -0.385694531851
C      0.146907754136    -1.616854117404     2.383039066808
O      0.268459950685    -0.270968054398     2.049324998743
O      1.139144911481    -2.351249432051     2.476405891032
C     -1.307345580140    -1.998754419189     2.750963749716
H     -1.274719159253    -2.058911454525     3.850873708691
C     -1.662757058726    -3.385272823522     2.248605345117
H     -2.661989586165    -3.678146651705     2.632936123145
H     -1.689323150088    -3.387519285165     1.141024546374
H     -0.914857082028    -4.128341207159     2.596447530868
N     -2.425285431374    -1.124728977369     2.425083033153
C     -2.680723149565    -0.450231547256     1.367494439223
O     -1.938219893120    -0.265036292614     0.235257417035
C     -4.006831622154     0.183060735069     1.354834566239
H     -4.750266662592    -0.602406161915     1.580732976355
H     -4.021077115596     0.945203754804     2.152624931492
H     -4.217920421546     0.617773672916     0.363693688607
N      0.452614309815    -0.157759965860    -1.794455406610
C      1.195753795563     0.236605850285    -2.879507721908
C      1.791631063868    -0.700134278997    -3.697681003325
C      1.655692754165    -2.044425057759    -3.442644051474
C      0.889118502537    -2.427524413102    -2.377804780722
C      0.277810452945    -1.449470365519    -1.561410140818
H      1.312546078505     1.285705007521    -3.116077121799
H      2.379921794839    -0.370599675447    -4.538353896108
H      2.134975303574    -2.784009127225    -4.078596522173
H      0.735283846249    -3.458824496191    -2.129756558239
O     -0.452163276049    -1.921503157271    -0.601204309658
H     -1.222100203810    -1.131608792890    -0.097555584558

