# STO-3G

title

0 1
C      1.068899479556     3.506697222551    -0.877650907953
C      2.472589144932     3.468619046664    -0.638016173717
C      3.375221425847     3.443720574506    -1.732138249584
C      2.882529971108     3.470454028789    -3.044833022119
C      1.484632290164     3.493170565179    -3.290180639423
C      0.586317260381     3.513080172528    -2.218647962319
H     -1.932201645504    -0.779782144821     3.044880914422
H      2.848437594541     3.575051674703     0.374554674557
H      4.446015797133     3.438526517257    -1.546527614384
H      3.574095931139     3.482837450308    -3.884484439788
H      1.113244089750     3.505485251971    -4.312002533564
H     -0.485916392154     3.544033225277    -2.394899627973
C      0.982646954845     2.084226139233     1.793291696306
H      0.395586140044     3.736572881747    -0.058948490713
H      1.900000956700     2.066999026438     2.386137433371
C     -0.208392182939     2.395014977718     2.351959770108
H     -0.262356911339     2.655894213121     3.402883005287
C     -1.498701668171     2.344574256557     1.648551398728
O     -2.541669787622     2.689584790497     2.264125662337
O     -1.505123560415     2.139198997721     0.256040311409
C     -2.801067024861     2.006993324762    -0.344587935020
H     -2.686712276641     1.819264492648    -1.434266068273
H     -3.348806283889     1.140420692743     0.092629132891
H     -3.401559968991     2.934645508441    -0.207985421825
Pd     1.194107221571     1.312233347874    -0.045490568864
C      0.134694302753    -0.895263088739     1.480152137314
O     -0.967110859591    -0.678386593099     0.843029049185
O      1.300795145928    -0.484540320577     1.088953140090
C      0.016941867065    -1.550856684653     2.870033671458
H      0.947967876311    -1.404098768309     3.420757177793
C     -0.325337561548    -3.022623480430     2.805512621918
H     -0.395438742540    -3.427566525112     3.836106171759
H     -1.308000235858    -3.150209104378     2.305699658559
H      0.456802218711    -3.574535013326     2.245549807221
N     -1.063929279211    -0.853445865157     3.566424026160
C     -0.830002472458    -0.067197473324     4.652751016727
O      0.291140769580     0.124919527062     5.177471579049
C     -2.029840306842     0.578285668104     5.226168722673
H     -1.725418868037     1.185794513275     6.095666090896
H     -2.484474316475     1.213415911997     4.447834663003
H     -2.730446255432    -0.217060152888     5.532736125028
N      1.186929961737     0.246968493594    -1.928634542578
C      2.288723045941     0.233031535846    -2.740293846850
C      2.202515419124    -0.282001925451    -4.017774595830
C      1.012898592642    -0.795179186624    -4.484854625587
C     -0.068316280617    -0.795649236552    -3.644270876820
C      0.064189710518    -0.273601828499    -2.338332033335
H      3.228017757140     0.634689807796    -2.380712837260
H      3.074069616905    -0.279612832810    -4.651119049709
H      0.937319831099    -1.201112434901    -5.490120969987
H     -1.016508125162    -1.201005377870    -3.936138630266
O     -1.034142193322    -0.367477748058    -1.614923381455
H     -0.967424086392    -0.358989040601    -0.554154598553

