# STO-3G

title

0 1
C      1.155934022253     3.463753084563     0.298860721067
C      2.238148909101     2.583133391693     0.588304121127
C      3.322868617102     2.482028600777    -0.320807794380
C      3.331245697411     3.254585853200    -1.488499526313
C      2.257491489630     4.135288490083    -1.782438195098
C      1.177086098922     4.236697072799    -0.899897527673
H      0.252132600502    -3.722900150453     2.621899649109
H      2.282899849036     2.069784248713     1.543949362078
H      4.140858347169     1.799911566282    -0.108359769540
H      4.166642300469     3.175462102417    -2.180776216096
H      2.282864231026     4.732074879003    -2.690991445939
H      0.354886493630     4.918687240570    -1.103133579066
C     -0.592701222615     1.608061378676     1.785360853110
H      0.419928390608     3.674030293370     1.065993623729
H     -0.042026453084     1.060231755419     2.550426363956
C     -1.773956968942     2.224263573329     1.984211940916
H     -2.233361600047     2.238411727176     2.966021484565
C     -2.538887546916     2.859256198430     0.900762665163
O     -2.021107335507     2.945845392042    -0.249447890969
O     -3.779363835707     3.449953488175     1.193648123944
C     -4.459817206991     4.060995695075     0.088517600799
H     -5.425929777864     4.483652003583     0.440057719709
H     -3.853990945952     4.891154408665    -0.340311040384
H     -4.678078497566     3.311107691684    -0.705559360496
Pd     0.119096817301     1.381727308864    -0.074439639805
C     -0.303593073724    -1.330956359585     0.732506385524
O      0.981435825739    -1.405395379035     0.685252686682
O     -1.013986463529    -0.447714558037     0.101570895116
C     -1.024534202371    -2.380099084993     1.623377063044
H     -1.218904468546    -3.262053299418     0.997783864623
C     -2.345325165336    -1.894637795924     2.185728454031
H     -2.777691777059    -2.677371209069     2.842363357269
H     -2.188434988807    -0.972948681638     2.781669932874
H     -3.055920228717    -1.678084834192     1.361899191759
N     -0.155389711836    -2.803234180501     2.722913552634
C      0.418475093801    -1.940731858916     3.605736608650
O      0.174407991426    -0.714408818252     3.683282802291
C      1.391433910547    -2.547764048648     4.539133987627
H      2.213648721682    -2.971844022356     3.938325037797
H      1.770039234845    -1.761589374298     5.214466614472
H      0.872666218640    -3.336778917983     5.110197392419
N      0.854703494177     0.935463423926    -2.053914023412
C      0.390576105781     1.681377126023    -3.102570067027
C      0.935121817524     1.518864078854    -4.360835072872
C      1.942669864451     0.603049363373    -4.571965580808
C      2.377674507408    -0.142272098265    -3.507967282788
C      1.787758768666     0.047710370094    -2.238392461336
H     -0.394892216761     2.410198342618    -2.938614468044
H      0.568139646508     2.115940441137    -5.178776890153
H      2.377737419190     0.471187536054    -5.558919744710
H      3.150704484123    -0.877907668344    -3.603556919061
O      2.279431792070    -0.731128344522    -1.295969673780
H      1.722526189872    -0.893678335990    -0.401727270250

