# STO-3G

title

0 1
C      1.189515286354     3.531414339677    -0.965440181169
C      2.582972840656     3.532930869241    -0.670863505800
C      3.528288454423     3.541824544416    -1.728128259557
C      3.087373228128     3.564916186875    -3.059468324196
C      1.700321653324     3.549088517813    -3.359820305650
C      0.760440314035     3.533349830957    -2.324284628441
H     -1.934902116450    -0.852138025029     2.641703863426
H      2.914967910772     3.637559355972     0.356893530422
H      4.590566587738     3.564229923204    -1.500346054900
H      3.810646209355     3.602689090629    -3.871012674059
H      1.367864666951     3.556616658362    -4.394960095884
H     -0.305260739885     3.527539914616    -2.541093946619
C      1.034961152554     2.094230047865     1.702065385379
H      0.474783728115     3.732393115008    -0.174138665412
H      1.934082008199     2.128073163702     2.320177376050
C     -0.196563108384     2.314662674472     2.213585664979
H     -0.320307978171     2.539785406558     3.265680203938
C     -1.442611026276     2.180846684337     1.443572195873
O     -1.378921787617     2.121619190498     0.184291290927
O     -2.672742106381     2.310100176060     2.109650062300
C     -3.832776751035     2.006883679417     1.322769720414
H     -4.743165741499     2.113917276105     1.950459938932
H     -3.921210650953     2.704048380449     0.458859761836
H     -3.789702613900     0.957635741921     0.948189772724
Pd     1.312728226753     1.337389120076    -0.137257147811
C      0.227136627803    -0.890941977603     1.339253574227
O     -0.848066952825    -0.702833332797     0.649474409512
O      1.404491373249    -0.468908413484     0.998753924481
C      0.039900346333    -1.524479267508     2.733165272780
H      0.899178970739    -1.285615059428     3.362578071429
C     -0.166726969111    -3.021718691845     2.681197743746
H     -0.296871460138    -3.409217017920     3.712642110865
H     -1.084095515411    -3.245698568310     2.098171344894
H      0.708714624195    -3.513774244461     2.210553458170
N     -1.162432680642    -0.909024146506     3.299349664975
C     -1.112073693959    -0.148888391794     4.427106358592
O     -0.077048743416     0.064466200873     5.101896104927
C     -2.389056148271     0.456491421469     4.867967327517
H     -2.261249530558     1.550950993937     4.860305649482
H     -3.208233340832     0.165488886235     4.188915916809
H     -2.595204297959     0.098380811338     5.890635258496
N      1.388657997187     0.287622466118    -2.027838608770
C      2.519933289791     0.309700427241    -2.797340658904
C      2.493037315318    -0.185384497015    -4.085334233476
C      1.332352223848    -0.713475053511    -4.605583400654
C      0.220577379963    -0.749215267879    -3.807104829405
C      0.291094893797    -0.243421026086    -2.489637810298
H      3.436594413859     0.723339596789    -2.395420869433
H      3.387310772822    -0.154346578231    -4.685027931041
H      1.302520141149    -1.103094968868    -5.619577942699
H     -0.709170514197    -1.164283788838    -4.141453207252
O     -0.831219205136    -0.375007240574    -1.811634737658
H     -0.811144264345    -0.354001324428    -0.754547998979

