# STO-3G

title

0 1
C      1.177944602621     3.529096216136    -1.003593769509
C      2.568393693007     3.530406624465    -0.697035742836
C      3.522459290156     3.524828883556    -1.745259045035
C      3.093153216705     3.533954842592    -3.081232233864
C      1.709304378157     3.517261979712    -3.393695917530
C      0.760441546330     3.515731382675    -2.365512367210
H     -1.895085718565    -0.859553058450     2.895615968618
H      2.891353218475     3.638706298030     0.333322532722
H      4.582866587539     3.545659602068    -1.508785421687
H      3.824002145946     3.560669904175    -3.886434070250
H      1.385635524201     3.513624563274    -4.431636825976
H     -0.303443568858     3.509258674625    -2.591250089302
C      0.946766822052     2.128301192147     1.677987443497
H      0.457498701538     3.740623253597    -0.219972089257
H      1.825112802783     2.168947769323     2.324055443691
C     -0.302584911651     2.360550938811     2.139029315806
H     -0.466634609615     2.611488872418     3.180068457308
C     -1.515557071791     2.211524752122     1.320749875855
O     -1.397310249394     2.105622774786     0.068398865300
O     -2.772304369736     2.374981241247     1.926534237846
C     -3.901024030392     2.073080271865     1.094595940170
H     -4.836802095513     2.208981508442     1.677957406939
H     -3.938541357318     2.752113097825     0.212726265395
H     -3.859900819177     1.015189545965     0.745056921985
Pd     1.252914702642     1.340919330160    -0.144658277723
C      0.218670520082    -0.882824806325     1.388144334418
O     -0.876541007988    -0.707945208379     0.729015238585
O      1.380200883109    -0.438426783748     1.019417466043
C      0.093530011206    -1.530721142788     2.781991084379
H      1.001003775006    -1.334061600089     3.356029061171
C     -0.174231164497    -3.018045739415     2.723189241311
H     -0.256546612154    -3.416582238075     3.755333458883
H     -1.132880396724    -3.198498050866     2.193921316969
H      0.651224504126    -3.535651223140     2.193338804015
N     -1.039628994712    -0.881692065344     3.442534750579
C     -0.872204541276    -0.058359454125     4.513018042688
O      0.223852243562     0.209325846197     5.057150907705
C     -2.118361896500     0.534375673854     5.043559626206
H     -1.866898705896     1.177321294483     5.904629396194
H     -2.587323089366     1.123776185371     4.239022409812
H     -2.780772443243    -0.291392969533     5.354916007172
N      1.325713048866     0.250795129101    -2.012799896670
C      2.444409942687     0.277725163698    -2.800254702693
C      2.408335468156    -0.248563385838    -4.075546568354
C      1.251345823472    -0.813027863742    -4.564709996352
C      0.152946446929    -0.852772546490    -3.748110870627
C      0.232470667154    -0.313580488215    -2.444367756297
H      3.358703278478     0.717692893089    -2.421951249431
H      3.292719085184    -0.213788168911    -4.689528191768
H      1.214388644988    -1.227694006589    -5.568479539124
H     -0.772600426258    -1.295299203488    -4.057968507838
O     -0.877481574151    -0.454555706487    -1.747295581687
H     -0.850464376260    -0.396663789636    -0.693321623696

