# STO-3G

title

0 1
C      0.971697188126     3.528463858975    -0.886935323138
C      2.274219313077     3.611004538907    -0.318819546953
C      3.412037611098     3.627561430181    -1.161463807473
C      3.250142555997     3.576222778613    -2.555691619974
C      1.956792367271     3.476280258251    -3.127943900557
C      0.827071043876     3.454087440534    -2.301471620507
H     -1.942142476983     0.011578435629     3.163086796923
H      2.384035686291     3.754062782705     0.751580154334
H      4.404638189584     3.710974811413    -0.727097120602
H      4.121677188591     3.619485307559    -3.205240464013
H      1.841152753017     3.425320700259    -4.207800546837
H     -0.171620246033     3.385238316911    -2.726752891694
C      0.165350305988     2.182542578613     1.691842991067
H      0.105108694136     3.726169550871    -0.263845746918
H      0.863991620346     2.272566154480     2.525423666403
C     -1.161618243652     2.397738930889     1.836654045863
H     -1.565395254725     2.664916846260     2.806235555493
C     -2.141825636445     2.198036430415     0.758900697275
O     -1.720442729688     2.009029550440    -0.417333593044
O     -3.505563624421     2.409657219554     1.020277049170
C     -4.397862449330     2.127243914511    -0.066266953895
H     -5.444160017643     2.305705280595     0.262367957393
H     -4.187256274969     2.790326983521    -0.935508658386
H     -4.309228369078     1.062206277249    -0.381565731257
Pd     0.907620470356     1.357694854815     0.021186377850
C     -0.306809818345    -0.924077553989     1.359362385968
O     -1.260375183565    -0.775693111171     0.512980323620
O      0.879754582168    -0.397771585909     1.238492568152
C     -0.609798147744    -1.564561659156     2.739490176774
H      0.318216051089    -1.973092005587     3.147264043749
C     -1.658844431200    -2.652091190068     2.694225835643
H     -1.827738662315    -3.044476499011     3.717890691770
H     -2.613780115722    -2.230251193772     2.315763571668
H     -1.329744127048    -3.476504075901     2.029481946134
N     -1.126727113103    -0.456786048248     3.555281258675
C     -0.497648773668     0.297910398118     4.500947341151
O     -0.946743850662     1.400141378013     4.897245272524
C      0.749371557306    -0.234367396137     5.091969102566
H      1.076761530264     0.458710522235     5.887388813641
H      0.522752288137    -1.222786803523     5.524591806403
H      1.517864829702    -0.292149634136     4.302987818003
N      1.434832559343     0.228836254099    -1.750702173526
C      2.692723443842     0.297030208462    -2.284852603504
C      2.953411348204    -0.261670036235    -3.519657073760
C      1.954123688583    -0.897388752512    -4.222607916835
C      0.710067927629    -0.974649085305    -3.655638542837
C      0.485693774745    -0.399186114284    -2.384953834607
H      3.484065411487     0.793572423199    -1.737266758903
H      3.945222242485    -0.193986033214    -3.934515503153
H      2.150340861514    -1.336354743754    -5.197161046887
H     -0.108090476604    -1.468991923071    -4.140288088370
O     -0.742972477029    -0.576842976155    -1.937251573854
H     -0.945352077599    -0.473264101343    -0.915963059478

