# STO-3G

title

0 1
C      0.991994432417     1.730876285191    -2.227168240438
C     -0.118434585335     1.553497000249    -3.114241843752
C     -0.027007090009     0.601239179136    -4.170458880747
C      1.133012584783    -0.157166242658    -4.329445771041
C      2.237525288773     0.024663442254    -3.450864871407
C      2.175510233147     0.961833045184    -2.421491162242
H      1.002468231959     2.557153874877    -1.526166521163
H     -0.958349694465     2.239943441117    -3.082916644774
H     -0.863427840440     0.487050080937    -4.854317402856
H      1.198606104873    -0.896183132078    -5.122594822296
H      3.129434011669    -0.580610702815    -3.584468348650
H      3.024153231521     1.107612460641    -1.759108475446
C      1.312197352999     0.512577462276     1.169158225035
H      2.229193539011     0.994551601713     0.833318736478
H      1.074037143300    -0.432840111010     0.688234596196
C      0.514245189270     1.030071619476     2.136456197995
H     -0.398518446856     0.513602879938     2.395322585982
C      0.774509187184     2.280628297258     2.867527546061
O      1.715117557084     3.037346661595     2.501260910588
O     -0.132677834679     2.679414790223     3.864512610634
C      0.136727919696     3.941024844200     4.491667895361
H     -0.639425170732     4.141865184349     5.261365419779
H      1.130439467060     3.928877898513     4.994412303664
H      0.108532858130     4.767560593408     3.746037622333
Pd    -0.647444852732     0.598388868420    -0.963291483882
C     -0.390737459008    -2.242365279549    -2.139712167560
O      0.164468640220    -1.247040896169    -1.433653818441
O      0.271227590151    -3.073403278312    -2.803621231192
C     -1.967587366963    -2.441154003835    -2.050568056354
H     -2.118024527046    -3.483644814635    -1.740265214141
C     -2.652348479884    -2.243887689293    -3.383194105956
H     -3.742344155847    -2.423046076753    -3.272678497277
H     -2.495741759061    -1.206851045573    -3.745013591750
H     -2.242865183084    -2.954889084722    -4.131185612264
N     -2.550176008351    -1.495863588254    -1.097338041859
C     -2.175718563578    -1.466456839332     0.192806513918
O     -1.748645391014    -0.393481239675     0.743332897640
C     -2.234311317049    -2.703781677256     0.988528797315
H     -2.006881041066    -2.454807772544     2.041140153041
H     -3.256776414515    -3.111135251140     0.907888443180
H     -1.485245026985    -3.417965129946     0.606464066925
N     -1.642219135926     2.301251515481    -0.586807110255
C     -1.252452775428     3.387385920503     0.141967607370
C     -2.150762624793     4.403478982528     0.387653454042
C     -3.443673917367     4.331599821913    -0.085252722131
C     -3.823780453257     3.227475268108    -0.803116530217
C     -2.896985663946     2.183421573147    -1.038700169944
H     -0.233043334764     3.465135249704     0.497003302390
H     -1.833226066079     5.261905657256     0.955688782174
H     -4.149997668952     5.133689189444     0.110921991513
H     -4.817898543577     3.107586923362    -1.182205154134
O     -3.309959158568     1.157263274530    -1.681774354904
H     -2.784516174460    -0.536968137845    -1.446394562436

