# STO-3G

title

0 1
C     -3.309366648128    -0.058780111071    -0.500378212333
C     -3.892269092037    -1.175695823415     0.163638663846
C     -3.770049269862    -2.463330598337    -0.381894132172
C     -3.063979319837    -2.650037679456    -1.593614107325
C     -2.489266642970    -1.553433667037    -2.265134320479
C     -2.617449262348    -0.244906666935    -1.733807352922
H     -3.485647343754     0.949632440294    -0.137868975707
H     -4.430811018845    -1.024245919518     1.095576048747
H     -4.203012601778    -3.315767408644     0.133350199454
H     -2.964560853062    -3.649858519606    -2.008738273784
H     -1.958967244604    -1.702664882398    -3.201367777913
H     -2.248005559129     0.626056977504    -2.268906778265
C     -1.247072125873     1.129522971575     1.542116299780
H     -1.815516990273     1.902249055854     1.017910081300
H     -1.845490804084     0.622445263175     2.307857772718
C      0.040903100100     1.720159982741     2.132468354922
H      0.659158004286     0.934773416671     2.552022544904
C     -0.106191008873     2.794034542409     3.168799147827
O     -1.238732017076     3.322110643959     3.361057223979
O      0.922948570475     2.944195409394     4.120298923451
C      0.705864527959     3.948109886922     5.121167815949
H      1.586592289360     3.990447733154     5.796795406968
H      0.577280302671     4.949830045254     4.651848626492
H     -0.192486285974     3.707943427288     5.733729266101
Pd    -1.056451647495    -0.365417322830     0.165606698171
C      1.148725850395     1.668185995044    -0.148415195577
O      0.908707325150     2.229105352567    -1.237233370746
O      0.819601944339     2.347050814979     1.005024966957
C      1.845343610844     0.294180730345     0.005674986900
H      2.771134074270     0.469932974210     0.579645118241
C      2.203722815005    -0.324274369405    -1.328013496556
H      2.685415811773    -1.310163809475    -1.168893287859
H      1.285820585619    -0.466274561680    -1.934225667116
H      2.903792239621     0.337893523887    -1.879484207805
N      0.888748219914    -0.590408455597     0.682203074501
C      1.108818254024    -1.449258443351     1.702652301405
O      0.177072285765    -2.047346578058     2.313093589939
C      2.507092470827    -1.708368640193     2.125699588258
H      3.080292608343    -2.057882790544     1.251555715694
H      2.921523440411    -0.777618676318     2.547147091958
H      2.500070780415    -2.491481839756     2.906460120914
N     -2.707502554769     2.894558363279    -2.339255870482
C     -3.935762575508     2.878789270745    -2.945457355472
C     -5.022526210936     3.469662674395    -2.325328479679
C     -4.876078319475     4.095187647744    -1.104205328866
C     -3.633144914504     4.107392657537    -0.528069968479
C     -2.559854247350     3.491626199324    -1.208197421071
H     -4.056732690172     2.384956043926    -3.902441005447
H     -5.985873696211     3.445219050955    -2.806980584129
H     -5.722867113996     4.566939074609    -0.613018220245
H     -3.436764632916     4.580142690886     0.415343938864
O     -1.396729548832     3.572246661265    -0.542101215537
H     -0.602467095652     3.170634584197    -0.990044206410

