# STO-3G

title

0 1
C     -1.669478648546    -1.031039465793    -1.784812077713
C     -2.063862553821    -2.363217941447    -1.549477545444
C     -3.428544935167    -2.684252471780    -1.403457838909
C     -4.405061144825    -1.671348017843    -1.490281873909
C     -4.013734752099    -0.338109563024    -1.727141618074
C     -2.648902094264    -0.021469788503    -1.876494138326
H     -0.623119931008    -0.767382965925    -1.901041168277
H     -1.312624640033    -3.145233041825    -1.466928200880
H     -3.729285508266    -3.714249254983    -1.222761007820
H     -5.458764586103    -1.918642313938    -1.378929721484
H     -4.763623070405     0.446957553618    -1.799440691394
H     -2.347001583025     1.007831797541    -2.062211250728
C      1.881653381431    -1.991888499564    -0.356485944842
H      2.674611492328    -2.447823022809     0.239124732165
H      1.460243071134    -2.710804629459    -1.059163161899
C      2.315859000935    -0.687963755116    -1.073377099702
H      1.803763315742    -0.521596249908    -2.016142407854
C      3.745535553501    -0.326196155628    -1.170425777879
O      4.612010552127    -0.954528258678    -0.506664139665
O      4.098078940463     0.779619993361    -1.962488175179
C      5.495073457363     1.102643433878    -2.003882640170
H      5.648982575539     1.986727945221    -2.659253162846
H      5.873807145682     1.352532756359    -0.986656588105
H      6.084828181708     0.254133135636    -2.419244508537
Pd     1.335671217821     0.821196499932    -0.001098428323
C      0.850719140067    -0.747949357326     1.455609014003
O      0.701972326627    -1.805475267730     0.598527062806
O      2.021086072039    -0.283801602897     1.770938162382
C     -0.427311539015    -0.084664699189     2.100493550336
H     -0.178114175740     0.153898610404     3.142547297417
C     -1.661130276718    -0.960764539910     2.035123567551
H     -2.467793075676    -0.539848064746     2.665254539271
H     -2.005140194726    -1.048178873889     0.985074686063
H     -1.420663148889    -1.976113483372     2.413232105179
N     -0.544751745664     1.110886611250     1.268598455459
C     -1.436670334816     1.988484731541     0.982139373132
O     -1.267311845707     2.865185057018    -0.011453300457
C     -2.706256169730     2.104899601421     1.714066499123
H     -3.342769060441     1.250105777908     1.432299303132
H     -2.482303957522     2.108788042042     2.793871917842
H     -3.208002604922     3.047255476672     1.426930484772
N      0.716636663980     0.655261179297    -3.405720998257
C      0.516693079334     0.524793333862    -4.753098040242
C      0.035977006599     1.592615736476    -5.488827761153
C     -0.242880623802     2.795018423209    -4.875031554886
C     -0.034183170171     2.899730088299    -3.524301798779
C      0.462991974190     1.775854189173    -2.819173701534
H      0.732091667454    -0.419352774991    -5.239378359973
H     -0.119828863607     1.477725368753    -6.548512756174
H     -0.619399427381     3.638148228302    -5.447868253336
H     -0.225650283967     3.806657055389    -2.988511683706
O      0.604795723386     1.980386276449    -1.505886420966
H     -0.486518665761     2.621189789683    -0.651550982577

