# STO-3G

title

0 1
C      1.849579806974     3.016636983305     1.428833673471
C      2.562592294239     3.965444221547     0.661310220019
C      3.077169530603     5.128633866800     1.263345579319
C      2.883572231265     5.356552053405     2.639931068190
C      2.176945450527     4.412429400430     3.410155394446
C      1.662047777477     3.248036367745     2.809072621721
H     -1.985798816884    -1.878838849325     1.858790689755
H      2.726528337989     3.788713429987    -0.400768580472
H      3.627960743688     5.850413292623     0.664221149612
H      3.283319835733     6.254099080792     3.106370324017
H      2.032211208869     4.578268620064     4.475371949207
H      1.119678788770     2.514076309942     3.401396688624
C      1.271286109117     1.778135103061     0.762275879830
H      2.022548924293     1.200244473290     0.212432735444
H      0.911147425847     1.073329045584     1.548090613968
C      0.064752548286     1.976907295066    -0.093686662449
H      0.164448882028     2.103189394458    -2.333043961426
C     -0.942897806162     3.012260238925     0.224444896005
O     -1.613068693639     3.450395928599    -0.749221230867
O     -1.388687639582     3.180140154936     1.545731689504
C     -2.363806541240     4.210157843824     1.750955838138
H     -2.614297180658     4.264588082080     2.832273914219
H     -1.960939961806     5.200775821712     1.440689360503
H     -3.298600132399     3.991309772761     1.187194406023
Pd    -0.232187876919     0.799853948975    -1.568196036643
C      0.297740097994    -1.500336230628     0.186611491490
O      1.488399968552    -1.465218401115    -0.300666292158
O     -0.742888559680    -0.948696141293    -0.356598260307
C      0.089550054807    -2.172671039977     1.565681718170
H      0.979120550964    -1.961332377422     2.165632748327
C     -0.094811823235    -3.670793498293     1.464582533776
H     -0.213808588480    -4.095479939214     2.482867591534
H     -1.007626698433    -3.894179887166     0.875690390636
H      0.788023414096    -4.133348894211     0.976977143385
N     -1.083802664996    -1.606445541794     2.230004336816
C     -0.976045982939    -0.447351424219     2.923859262912
O      0.104204532156     0.180147009635     3.089434572233
C     -2.210672105929     0.107775509543     3.516604825148
H     -2.038701481628     0.207160301108     4.600855309731
H     -2.370365288400     1.099887471802     3.062024561399
H     -3.072007528887    -0.554819649088     3.323982811047
N     -0.153136693786    -0.317805933091    -3.357328840535
C     -1.098054077535    -0.154388758135    -4.334898362454
C     -0.875871933508    -0.654525420083    -5.600243808442
C      0.285026189212    -1.337718904017    -5.889466546870
C      1.205628295972    -1.505142073037    -4.889031168379
C      0.942838199981    -0.985354180457    -3.603292911999
H     -2.013087927629     0.384350271649    -4.116676918553
H     -1.622375498804    -0.515898967691    -6.365935450619
H      0.463581908686    -1.738287600201    -6.884091661674
H      2.123474601620    -2.037805941550    -5.044619217413
O      1.890647520689    -1.224499312438    -2.725472368888
H      1.696565801335    -1.203814183095    -1.675840694139

