# STO-3G

title

0 1
C      1.373271239829     2.483920230219    -1.125996266204
C      2.748705885861     2.795859148074    -1.016852674330
C      3.375251733234     3.639790183824    -1.960038157072
C      2.634038292307     4.188247376628    -3.022897321700
C      1.262951986646     3.883643117011    -3.138919030377
C      0.639267062731     3.035059680477    -2.201989417268
H      3.516159816103    -0.116564234078     1.046708996218
H      3.349786583364     2.391998616423    -0.202290061904
H      4.434831182803     3.868995249234    -1.859754942299
H      3.113807871798     4.842064557837    -3.747774628166
H      0.678361485010     4.301403486156    -3.956792442353
H     -0.418129585048     2.801234480633    -2.317350147356
C      1.022389558175     2.480162559044     1.978000675167
H      0.860147403600     1.876668200197     2.863339616748
H      2.054943250795     2.711417293112     1.738070965349
C     -0.014361697663     3.170491414392     1.356714532759
H      0.209373511166     3.885031765788     0.580210661017
C     -1.402055113716     3.221938077027     1.851185129665
O     -2.224971490704     3.958903388947     1.247566777810
O     -1.731480227829     2.606012817070     3.074408540598
C     -3.097952353883     2.743383221424     3.489459640716
H     -3.246309404295     2.215876679562     4.455466411545
H     -3.361212897654     3.815750169320     3.635265090063
H     -3.785311183670     2.294811454986     2.735567168703
Pd     0.505348694435     1.214466534744     0.186117622505
C      2.028016556835    -0.594887038140     2.224830496723
O      2.526163229891    -0.016303320066     3.199786912113
O      2.692952066933    -0.653272197655     1.004466401513
C      0.626181723626    -1.229727650323     2.202812722762
H      0.391472458167    -1.451136855502     3.255393676708
C      0.570625221856    -2.514534955567     1.398157573470
H     -0.434758491752    -2.973404708508     1.476239590809
H      0.770457267280    -2.291745176636     0.328792515479
H      1.328558493779    -3.234714392509     1.770034178111
N     -0.287739361837    -0.260282006835     1.577379268995
C     -1.581509985718    -0.178797929839     1.807817455955
O     -2.373024341610     0.512699184328     1.037349767064
C     -2.197822159505    -0.808415212636     2.995728048362
H     -2.057411553600    -1.899407723495     2.939987726632
H     -1.720010980292    -0.376139430209     3.891680239802
H     -3.278243773365    -0.573957133747     3.004866677529
N      0.259016641288    -0.066006691737    -1.422975051415
C      1.345500310263    -0.574501382830    -2.080075967651
C      1.168304560711    -1.311440965145    -3.232644814307
C     -0.094913349203    -1.532053981736    -3.735047913032
C     -1.166815656717    -1.011257565819    -3.058765402980
C     -0.955550120340    -0.266934998449    -1.875831309342
H      2.342820418898    -0.397076889189    -1.695097525091
H      2.029994372402    -1.705373995606    -3.745464413710
H     -0.237960461210    -2.104686332818    -4.647420064591
H     -2.173725347492    -1.142613700239    -3.400155089783
O     -2.040002630924     0.189713691958    -1.318653819440
H     -2.130801168439     0.460462692226    -0.203548150060

