# STO-3G

title

0 1
C     -0.173074011361     3.781965765921     0.743339739066
C      0.147364492043     4.745807479986    -0.242010942938
C     -0.843350059443     5.574808668756    -0.794400179816
C     -2.177212721944     5.466679064397    -0.355001175847
C     -2.506242102749     4.519801325648     0.636720273791
C     -1.517411647160     3.681174124744     1.177767763081
H     -3.612712996672    -0.391784621148    -0.419366086664
H      1.179613375118     4.841856767732    -0.575339186793
H     -0.576631044026     6.308700809944    -1.551383486818
H     -2.944512763115     6.118776422641    -0.766188809414
H     -3.530234576270     4.444438248961     0.996385386761
H     -1.788861911076     2.960371681910     1.944519054840
C      0.920680802241     2.976693934587     1.341033776597
H      2.779081590643     1.200743463463     0.459786793246
H      1.909487625998     3.427183760372     1.260055872184
C      0.739559614149     1.888370180766     2.202789801494
H     -0.242126994969     1.474315214246     2.385441335299
C      1.773315267611     1.378354283010     3.118070476078
O      2.986679408992     1.571747864608     2.830430537955
O      1.401455652156     0.534689866181     4.176024189398
C      2.473424780942    -0.030348974485     4.942457807374
H      2.048941057179    -0.669186065994     5.746896221585
H      3.122908618300    -0.668878463526     4.301920215908
H      3.085108327970     0.768973805331     5.418449369569
Pd     1.304300103977     1.106019315704     0.103816390502
C     -1.077563487198    -0.829494521610     1.546243385289
O      0.204249274439    -1.091077475136     1.649261604347
O     -1.712805658698    -0.082533867528     2.343652256002
C     -1.937013363687    -1.425481133408     0.363916661869
H     -2.721468695018    -2.018409254066     0.849211905336
C     -1.218402762064    -2.299301381856    -0.640435237079
H     -1.963524488848    -2.755071060186    -1.324588580573
H     -0.530818583904    -1.680958900917    -1.247899168908
H     -0.662209954038    -3.108711385505    -0.124846738397
N     -2.605086308170    -0.336239925396    -0.365999896632
C     -1.996501835104     0.778326090218    -0.804975456657
O     -0.772208253397     1.038245729044    -0.695487390815
C     -2.863048101063     1.762738741677    -1.481560649092
H     -3.642518805865     2.070547697334    -0.764431171951
H     -2.251564269862     2.637277527394    -1.767664271762
H     -3.309139916327     1.282783823160    -2.368710661603
N      1.975725955408    -0.214918109648    -1.335304111017
C      2.352008981640     0.246448205298    -2.566454969368
C      3.016262279418    -0.587665899997    -3.439484939225
C      3.291502269984    -1.891875191354    -3.091440030111
C      2.887220479546    -2.337340191559    -1.860446961188
C      2.209397952380    -1.461582254863    -0.983034732611
H      2.137500324204     1.271087705307    -2.847945116253
H      3.314533265427    -0.215591526168    -4.406417880993
H      3.810185072518    -2.554046013170    -3.779908028521
H      3.058451253312    -3.345234494687    -1.537348391278
O      1.834007833823    -1.993700326102     0.138573478714
H      1.016967224455    -1.531712738448     0.860106380950

