# STO-3G

title

0 1
C      0.252123193254     3.929702804898     0.619103402411
C     -1.073740018733     4.212338073902     0.210103095178
C     -1.374288922705     5.382868756200    -0.505989329771
C     -0.352158769259     6.296934903343    -0.825432897841
C      0.971455950071     6.029636584458    -0.418522200560
C      1.271035798501     4.861835948503     0.299344905949
H     -2.470184699210    -1.931102704010     0.260569368396
H     -1.859597062978     3.496129485676     0.437764115374
H     -2.398338289667     5.581952190335    -0.812826062641
H     -0.581421654880     7.206131503515    -1.376310014184
H      1.763641419324     6.736727921662    -0.653928925307
H      2.295877791276     4.682662330540     0.614611469396
C      0.503595193133     2.688846509114     1.388834909570
H      2.604214517985     1.400529137003    -0.320843230724
H     -0.392290498094     2.203150089120     1.772424624100
C      1.752596335862     2.211142706982     1.788346780850
H      2.647941972348     2.736861467513     1.494934526542
C      1.976435029680     1.200844656623     2.835665530411
O      3.158607837368     0.833638547387     3.060159621775
O      0.888434014495     0.651685215362     3.537676797290
C      1.220937826486    -0.320131300567     4.541115756264
H      0.290576478859    -0.691802241242     5.021903507457
H      1.746018492066    -1.194489665821     4.090731778475
H      1.865007782016     0.128999044225     5.330622279275
Pd     1.102599624799     1.177354028982    -0.179820998739
C     -0.121524017498    -1.800252119172     1.847940408340
O      0.783327348360    -1.167972871681     1.109572539671
O     -0.001005394938    -2.898951375346     2.436031640812
C     -1.459842656380    -0.973403385489     1.856807879906
H     -1.219312677387     0.072552925433     2.059536395251
C     -2.488945361974    -1.465275618040     2.849672307235
H     -3.406523251912    -0.846789209140     2.771041374217
H     -2.743646228966    -2.521794973992     2.626540617330
H     -2.084684828785    -1.395130069333     3.879789527819
N     -2.047188281979    -1.044707020922     0.507916286265
C     -1.821626070783    -0.127552580095    -0.446458197376
O     -1.161116336254     0.941196641012    -0.286663144131
C     -2.417810537611    -0.366914414906    -1.778416866885
H     -3.022200476864    -1.290251790052    -1.779632908671
H     -3.057274603692     0.499554901092    -2.014491171655
H     -1.594793652617    -0.451736977917    -2.508211117440
N      1.344835727186     0.107850371528    -1.917754324566
C      1.174639582354     0.783689799553    -3.095049699101
C      1.462787683371     0.164368127596    -4.291114409662
C      1.919918605223    -1.134818815921    -4.315801461855
C      2.077751926750    -1.792609473843    -3.124808254499
C      1.771537224688    -1.138508018478    -1.910038652655
H      0.813184524460     1.805881114506    -3.083498261754
H      1.326251675904     0.703161812435    -5.215028381206
H      2.147343686906    -1.627495446424    -5.257648176641
H      2.422896869548    -2.807064202775    -3.077585585455
O      1.945101120057    -1.859317262617    -0.846577209461
H      1.466381496359    -1.565841293213     0.182642437312

