# STO-3G

title

0 1
C      2.745142996164     2.535798788034     0.044371535559
C      1.652348088140     2.089444973731     0.832767659808
C      1.897395426227     1.327434220582     2.008444701249
C      3.222888763414     1.051006461112     2.405667471205
C      4.299141019367     1.534105407468     1.635198219638
C      4.061461812451     2.261815900876     0.446740066240
H      2.542386775876     3.076393091363    -0.873846481324
H      0.649992854171     2.459653926760     0.633808913404
H      1.052243932853     1.009937933724     2.612038070060
H      3.411392230724     0.489044151841     3.316579497666
H      5.322312288663     1.342453049912     1.951095984905
H      4.897111204655     2.606913517787    -0.157523980024
C      0.472603635429     3.144671461130    -2.428110206778
H      0.647081324393     4.067132878512    -1.876653881815
H      1.277195323296     2.791646440718    -3.069104007839
C     -0.675666954466     2.435879572980    -2.324240738764
H     -0.786209312077     1.528816854198    -2.898423998135
C     -1.812613650324     2.776015670380    -1.454712371329
O     -1.781415008789     3.825496417247    -0.755536318331
O     -2.934417861706     1.927024040953    -1.456944847842
C     -3.930217131932     2.214262036910    -0.464940759608
H     -4.748381980888     1.466246818083    -0.533991820425
H     -3.495507866091     2.149733186300     0.559610826148
H     -4.364271787421     3.227768940909    -0.619271400989
Pd     0.875899290500     0.189325729917    -0.414262341600
C     -1.715843335067    -0.429047033970     0.596761644631
O     -0.832739215662     0.593070781231     0.583770111985
O     -2.749649271743    -0.453445166114     1.290315994461
C     -1.313760319154    -1.615903306847    -0.347277656966
H     -2.247893764107    -2.030847054356    -0.746805013997
C     -0.583260195689    -2.706896547219     0.402469257132
H     -0.332732482193    -3.532477047823    -0.295202719498
H      0.357285259131    -2.304586348859     0.830151223220
H     -1.221502526743    -3.102077634269     1.220549731232
N     -0.385234905273    -1.089492704880    -1.367741409027
C     -0.535162220504    -1.113080071294    -2.676698351708
O      0.188681088939    -0.458436489850    -3.525504191596
C     -1.613060284818    -1.930311399313    -3.273116793542
H     -1.522820822806    -1.895278755068    -4.374736402705
H     -1.493462322491    -2.970714674446    -2.927479526784
H     -2.587690027885    -1.503124754484    -2.978512267981
N      2.672399371970    -0.358842609192    -1.249732915652
C      3.527179456868    -0.988361527103    -0.386361414627
C      4.850306012867    -1.170616751572    -0.731799500770
C      5.325182608440    -0.718893302346    -1.942883949638
C      4.447723212797    -0.111405455904    -2.801171496671
C      3.092929282964     0.037867169753    -2.428417778851
H      3.165528782123    -1.329173515203     0.576481035991
H      5.517102772103    -1.655918412339    -0.038847138147
H      6.368666412598    -0.851237700171    -2.215833250097
H      4.747386016041     0.241920096190    -3.767164805485
O      2.323122711654     0.582070917210    -3.324914884093
H      1.245765628797     0.168083238536    -3.350823964607

