# STO-3G

title

0 1
C      0.398837445849     3.525372215309     0.571932754180
C      1.819817595522     3.645982140076     0.572358462695
C      2.517408571348     3.980340283769    -0.598727205415
C      1.816173705486     4.171408054507    -1.810183808314
C      0.418811346648     4.018592693138    -1.844414662263
C     -0.286879373473     3.712106498975    -0.663539802225
H     -1.308529709053    -0.792960487468    -0.441293564936
H      2.363847766910     3.533404332667     1.507961609469
H      3.596944122323     4.102378429354    -0.567682746325
H      2.355008198594     4.441264055151    -2.715275171810
H     -0.124824570522     4.158414070946    -2.775165038557
H     -1.374005105214     3.690206099483    -0.678843438089
C     -0.394532572074     3.440790034057     1.896278674324
H      0.130076524157     4.012544913662     2.669780695412
H     -1.375369967941     3.900738693001     1.744694320116
C     -0.594982739553     1.964084820742     2.267244336685
H     -1.620108500153     1.694351179121     2.491210248406
C      0.352965734155     1.291020363053     3.183050960813
O     -0.070655218641     0.361567308668     3.912480780651
O      1.728101874645     1.489439302520     2.983119247311
C      2.601372865217     0.639364443771     3.742286773178
H      3.658624640206     0.888872161628     3.508524265677
H      2.443116169451     0.779349640966     4.835777403401
H      2.439034302888    -0.432863552143     3.483761133321
Pd    -0.100647076766     1.197801326816     0.413541670254
C      0.578456103895    -1.908663685272     1.598594960314
O      1.379271679931    -1.319463706975     0.660313565570
O      1.073615400440    -2.607324856632     2.493943526492
C     -0.962319761777    -1.696681534342     1.520625748142
H     -1.299319370558    -1.483784653925     2.539244336168
C     -1.653962327877    -2.965481832450     1.054671373919
H     -2.754564358781    -2.839939475213     1.119900881120
H     -1.382677900753    -3.172507714876    -0.002098769452
H     -1.357196778881    -3.825188872344     1.691433019861
N     -1.405022026001    -0.589585505021     0.625193374669
C     -2.628749856113     0.026744518125     0.943209496772
O     -3.171779082179     0.021191762388     2.061379682879
C     -3.275536344384     0.747310448965    -0.173520234680
H     -3.496631580693     0.005494563813    -0.963305026956
H     -4.213656763309     1.201981539289     0.190619559947
H     -2.586334792739     1.511741159144    -0.561497838315
N      0.782839741398     0.314467342624    -1.443180393606
C      1.952558151139     0.863955020018    -1.899114355199
C      2.267345102084     0.821460946707    -3.240523234876
C      1.421640320265     0.221378409771    -4.146079457226
C      0.264593408563    -0.343383804010    -3.684272471025
C     -0.041752841928    -0.295805587172    -2.304030888113
H      2.640525042148     1.317341394693    -1.197418031462
H      3.192036111738     1.258647541705    -3.579326579701
H      1.673715419701     0.184898821686    -5.202579351318
H     -0.425599215821    -0.846269302127    -4.331410850305
O     -1.123525042122    -0.880912588388    -1.936413169718
H      0.985719881761    -0.799828050422    -0.119499914122

