# STO-3G

title

0 1
C      0.712848094667     3.450585075402     0.728850951745
C      1.918922974137     2.708691160851     0.538176969329
C      2.769947381924     2.995354057507    -0.562323146170
C      2.463430086980     4.039199741419    -1.440567085975
C      1.276479924368     4.794701381000    -1.251853090076
C      0.402750753126     4.483533882125    -0.205520152624
H     -0.920549121183    -0.950770706997    -0.491207492398
H      2.275201510530     2.012883591888     1.294156770023
H      3.677997815989     2.412333367011    -0.692291827620
H      3.139136745925     4.281603380783    -2.257326924475
H      1.048600537498     5.620461558734    -1.922001546687
H     -0.504290030161     5.067077986153    -0.060706478364
C     -0.122811740331     3.297675495920     2.010952607455
H      0.414651266902     3.765490708704     2.846029266475
H     -1.063377462258     3.840171069880     1.880119557245
C     -0.425090492064     1.802213426224     2.241002395156
H     -1.492960693445     1.589521153223     2.265271699142
C      0.265290582312     1.085628483830     3.336004124966
O     -0.389883450987     0.267329932336     4.028743414607
O      1.599579709494     1.400050999341     3.639868423525
C      2.220302125283     0.579349432952     4.640047018379
H      3.270695674800     0.908891861577     4.789652513174
H      1.685917934320     0.664340157331     5.613424126790
H      2.236599075116    -0.488969091945     4.322200083947
Pd    -0.001993980183     1.212842068046     0.282191859389
C      0.514852886374    -1.769184783178     1.824837223177
O      1.374274787921    -1.221730426580     0.929536736755
O      0.890145112694    -2.309862973443     2.876408762274
C     -1.008972554054    -1.647605756560     1.493950005725
H     -1.523396498154    -1.337531340576     2.406089005845
C     -1.582641923788    -2.982552363068     1.056760953405
H     -2.676576612135    -2.888783308123     0.896826334851
H     -1.104116638209    -3.302157415566     0.107218837766
H     -1.401258382475    -3.750283262956     1.838007278159
N     -1.305823894386    -0.651678595393     0.419134529250
C     -2.553515109381    -0.015118445382     0.422166722707
O     -3.264876347261     0.144521521584     1.427972957425
C     -2.994470533838     0.518299563438    -0.882039756226
H     -3.022761409296    -0.320344673075    -1.599652613657
H     -4.004374334897     0.949699795804    -0.762286822339
H     -2.282938532320     1.289229776812    -1.215168801257
N      0.271531322761     0.857397777271    -1.860648411843
C      0.196819058583     1.864926124877    -2.783824053802
C      0.459792236631     1.612326280884    -4.114533796642
C      0.802608677152     0.346424595708    -4.534487887053
C      0.860473381991    -0.654039670250    -3.602635652365
C      0.585627831336    -0.363426946804    -2.246106747866
H     -0.104990442233     2.855238063271    -2.476441689410
H      0.394500998902     2.415939248432    -4.829306277972
H      1.011449563289     0.144168500566    -5.581680941298
H      1.107378656169    -1.664014738451    -3.861247242218
O      0.635286996795    -1.371679118368    -1.423988559254
H      1.083320802650    -1.249589074750    -0.093963001794

