# STO-3G

title

0 1
C     -2.515275697449    -1.660075774577     0.969362781919
C     -2.164485044079    -2.407718979529     2.112841090878
C     -2.575974955690    -3.750920383998     2.234871188789
C     -3.349007784053    -4.345699206024     1.217935666793
C     -3.718320232806    -3.592966897548     0.084182413101
C     -3.302601910482    -2.252890925507    -0.038964945320
H     -2.203632985140    -0.624628624521     0.860839562096
H     -1.599354677680    -1.945641660447     2.920136680434
H     -2.311837303841    -4.324055945700     3.121356688149
H     -3.672896194359    -5.379840202591     1.314089503766
H     -4.331148998950    -4.045310748588    -0.692466172169
H     -3.592247565152    -1.663888989583    -0.906083636759
C     -0.317727652009    -2.051797404844    -1.747095077422
H     -0.221007084938    -2.915244072553    -1.096250211126
H     -1.319661788947    -1.795415919347    -2.068019298354
C      0.777219875128    -1.412488179943    -2.324054333286
H      0.609249243307    -0.653548125997    -3.074601565182
C      2.177798104768    -1.843068840236    -2.164575834193
O      2.449071740956    -2.860674526925    -1.470112458967
O      3.186266394404    -1.112012480261    -2.814956682822
C      4.529543730263    -1.560837353078    -2.588557152272
H      5.234409873785    -0.908180399501    -3.147301709264
H      4.786719321629    -1.506399532547    -1.506314535924
H      4.663584957132    -2.606026795894    -2.949372763082
Pd     0.004808754665    -0.120000011805    -0.588074239952
C     -1.737587118298     1.858320275277    -1.679588659712
O     -1.432637355325     0.530794196722    -1.807529438892
O     -2.602783351683     2.403701528669    -2.385770034428
C     -0.889143168069     2.594020517131    -0.611192582554
H     -1.498125398506     3.371273564020    -0.136254027493
C      0.329722400605     3.248266602796    -1.236184224337
H      0.892392416090     3.809019120970    -0.462162376436
H      0.990874941307     2.469756648468    -1.668375805233
H      0.017052504212     3.954829792658    -2.033075043248
N     -0.447229884543     1.594215803956     0.387347171238
C     -0.158989506350     2.030443751253     1.634076234248
O     -0.060363207971     3.244274753442     1.983397364824
C     -0.071143009593     1.005511369244     2.694346627001
H      0.938854941286     1.047373857661     3.132019800406
H     -0.825417356441     1.263548963202     3.456784018562
H     -0.289434425032     0.012299172002     2.279086350284
N      1.560528706360    -0.737167798322     0.638374435262
C      1.502261745470    -1.907462168063     1.350029289486
C      2.434509739243    -2.157794853439     2.337917528816
C      3.453612133771    -1.263559867052     2.583744410983
C      3.510307090122    -0.117071466394     1.831159119877
C      2.520575531220     0.096944464442     0.842652123822
H      0.705285524840    -2.616965530420     1.163379662330
H      2.374636557374    -3.076589142823     2.898908267464
H      4.202095582376    -1.470156331695     3.344556601288
H      4.307240110138     0.587644257800     1.952769194670
O      2.614443839221     1.186922524326     0.064180560567
H      2.974012743474     1.986442800691     0.491994981398

