# STO-3G

title

0 1
C     -0.932451823082    -0.942783693911    -1.698487449286
C     -1.516786352485    -0.450378272810    -2.884153975891
C     -1.332715506383    -1.143017375364    -4.098055946373
C     -0.570232994744    -2.329707708728    -4.124022003054
C      0.005794547057    -2.824145984758    -2.935262380282
C     -0.174197978182    -2.132141915269    -1.720800277947
H     -1.096240668490    -0.433200886155    -0.753034512014
H     -2.105619551483     0.464047252705    -2.857146685716
H     -1.788326284394    -0.766846775571    -5.012011514491
H     -0.440164915441    -2.870411494041    -5.059373334612
H      0.582148623064    -3.746689936907    -2.950442123731
H      0.255029091101    -2.498230328240    -0.792266416122
C      2.955366019002     1.205816811724     0.012301791093
H      3.526483246651     1.865572768496    -0.637524260505
H      2.758287413311     1.565873307502     1.015524079978
C      2.733152706512    -0.140788765106    -0.297592979879
H      2.233889619325    -0.776499501391     0.419596305171
C      3.371851680698    -0.852396092278    -1.417771375187
O      4.126429261816    -0.227589348669    -2.210878918810
O      3.132077800348    -2.227990392049    -1.574149419927
C      3.750187809527    -2.849080486859    -2.709506058443
H      3.492265516035    -3.929815611680    -2.722035198124
H      3.384408056949    -2.392920100514    -3.657101679956
H      4.858859741665    -2.757187341115    -2.656360335542
Pd     0.843534004157     1.246448073375    -0.680434995529
C     -1.194837384780     3.014310405740     0.492437047723
O     -0.684076256193     2.666318051878    -0.726034452941
O     -2.111884021115     3.834926238865     0.637574240798
C     -0.478023446171     2.311138138883     1.679790637700
H     -1.248129812481     2.161071163356     2.446525138998
C      0.597631009902     3.204526754590     2.263693669551
H      1.125632267912     2.672591776523     3.081618065411
H      1.329494147934     3.479591952172     1.477646461257
H      0.142642059721     4.132158698994     2.671273023691
N      0.156824132199     1.060212370712     1.222610207010
C      0.070824143718    -0.153027561474     1.807638326181
O      0.544169580685    -1.217886670363     1.304610752157
C     -0.591001733500    -0.263103915797     3.130917074301
H     -0.482945697329    -1.303940522911     3.488256916489
H     -0.088012788805     0.420629107168     3.834206831693
H     -1.663864682739    -0.032637940328     3.015798449627
N      1.264432490782     1.666470801215    -2.690327779889
C      1.583205335047     0.691317044971    -3.599272104732
C      1.935757052623     1.031691937885    -4.889877995913
C      1.973082549824     2.350750877483    -5.280945421037
C      1.603117140424     3.306734895544    -4.373231444060
C      1.213419368710     2.915588761675    -3.075391142582
H      1.560888718524    -0.349289171824    -3.309496097905
H      2.199472342242     0.253869622605    -5.586428035567
H      2.262322798744     2.624023601620    -6.292093669315
H      1.562122679132     4.347096945073    -4.625908632219
O      0.769620730007     3.895327392234    -2.315541682572
H      0.119349311842     3.554474279738    -1.574573266874

