# STO-3G

title

0 1
C      0.308169507535     2.244920445153    -2.615363040791
C      0.021358177069     1.198929706667    -3.515848505900
C     -0.817055517385     1.427818795421    -4.625120138603
C     -1.368440386157     2.706997662872    -4.839755081436
C     -1.074067733947     3.757860731685    -3.947882069453
C     -0.235665268393     3.526276296202    -2.838907530833
H      0.952549645203     2.068577280567    -1.759148825145
H      0.463818815666     0.218851819606    -3.351495746784
H     -1.033707286192     0.618048454385    -5.318890313514
H     -2.014214576049     2.884297264815    -5.696958231351
H     -1.490474886661     4.748184322288    -4.118521507934
H     -0.001079482111     4.339894991928    -2.155629967741
C     -1.561508464090     1.761550390132     0.277786636720
H     -2.072723895938     2.214627197805     1.119425169160
H     -0.719955693278     2.304805929046    -0.132530767837
C     -2.030190415717     0.633782502343    -0.375731287619
H     -1.557243826522     0.327830618042    -1.297470033438
C     -3.256246924352    -0.087906770514    -0.004312000045
O     -3.662181640564    -1.024705570481    -0.740049844255
O     -3.806157533804     0.125652521460     1.273513702422
C     -4.936127267932    -0.690579129175     1.613263874043
H     -5.288514354116    -0.428043109522     2.634167112867
H     -5.775857846907    -0.520951348890     0.901337096119
H     -4.661018187739    -1.769998470422     1.608708392579
Pd    -0.552480783125    -0.034756623172     1.348563255375
C      0.391281325148    -0.357522368350     4.035336445995
O      0.232215672585    -1.074872555714     2.890029598087
O      0.680287503258    -0.870954419764     5.129510607270
C      0.178170988735     1.195445021067     3.856862976352
H      0.929586378996     1.706494871548     4.473740271719
C     -1.197510981114     1.627806480905     4.307359514879
H     -1.308624962069     2.722009809739     4.161462807820
H     -1.972048862589     1.106465864979     3.707038197392
H     -1.340764883960     1.386073578728     5.381365800936
N      0.275867689360     1.472888879365     2.422739339836
C      1.305231146016     1.966766510161     1.740750147871
O      1.505083403328     1.721426772015     0.486480643451
C      2.240159007186     2.887962211848     2.416251686114
H      1.653210405445     3.701899763080     2.875226916552
H      2.808071006739     2.319672619030     3.171329038817
H      2.939280221724     3.302600810284     1.666211678917
N     -0.370233665374    -1.668130909023     0.091573077644
C     -1.019179286745    -2.867534503662     0.193417030642
C     -0.660944786003    -3.912840107688    -0.633396106878
C      0.350288523535    -3.759926267138    -1.556859989762
C      0.995788920595    -2.552190959395    -1.625061090167
C      0.613649744845    -1.509518405469    -0.754639083454
H     -1.823737777467    -2.987379644957     0.909658163269
H     -1.183532549487    -4.851617246022    -0.555468540067
H      0.633598079883    -4.579849400121    -2.211270791567
H      1.801034808995    -2.376236049084    -2.309422736472
O      1.319455524304    -0.406929573688    -0.898162446597
H      1.288582679169     0.424217583962    -0.248106421011

