# STO-3G

title

0 1
C      0.520558365719    -1.084996584645     1.029753667127
C     -0.453294152121    -0.902588467688     2.033288127480
C     -0.235871581478    -1.423079684021     3.324614256122
C      0.958321417478    -2.111587085474     3.617373953446
C      1.933651527072    -2.286741433867     2.615017964429
C      1.711961623594    -1.778090163502     1.319548023718
H      0.338749098140    -0.723117483530     0.021354454255
H     -1.368559460865    -0.358430279026     1.809287718496
H     -0.992386083941    -1.290547774315     4.095320074536
H      1.124907732912    -2.513456325518     4.614712409173
H      2.852543605903    -2.824787919439     2.838692043454
H      2.451457904463    -1.936862598424     0.537996417027
C     -0.694233965629     3.265547499792    -0.856404662012
H     -1.701226379234     3.409603003067    -0.479043997791
H     -0.464560669889     3.685262404363    -1.832089889965
C      0.322045203586     2.758209635138    -0.051073829912
H      1.329800544497     2.742017920474    -0.439430155609
C      0.223534677034     2.513488875232     1.398884190836
O     -0.826430053887     2.819559920450     2.022155315916
O      1.390572671037     2.125766426282     2.078457415575
C      1.277218183371     2.006669772303     3.503384212705
H      2.244844135451     1.656041917753     3.921675470862
H      1.029376054401     2.989799027140     3.963260520451
H      0.494918413724     1.265654214658     3.779727064830
Pd    -0.691058774675     1.043842425781    -1.289460201960
C     -3.317013369140     0.179205687358    -0.626074845845
O     -2.329957952505     0.998330529530    -0.175400283985
O     -4.505046000003     0.305970247994    -0.283952146054
C     -2.834281951341    -0.968647018837    -1.562011208529
H     -3.573525922289    -1.028242787722    -2.374726560883
C     -2.835898936124    -2.280539096193    -0.791331907351
H     -2.658968194437    -3.139852894905    -1.465174714172
H     -2.038832066679    -2.260336568539    -0.019174342505
H     -3.816802468512    -2.433518281087    -0.292942253210
N     -1.459883498204    -0.678389582087    -2.039175801775
C     -0.644754766960    -1.495155246967    -2.755787466707
O      0.618256687512    -1.441089901707    -2.716119637350
C     -1.237750336752    -2.479910500039    -3.695291501026
H     -0.985220708020    -3.488221787248    -3.325962930797
H     -2.324270054523    -2.347074701511    -3.790347713667
H     -0.766610504344    -2.319403543164    -4.681411423794
N      0.916175717633     1.250467414718    -2.595451659258
C      2.176956152450     0.793803377679    -2.311484846025
C      3.211177462751     1.043245911443    -3.194062557935
C      2.973813040914     1.701586316518    -4.382321495161
C      1.692522247577     2.108409040876    -4.656186625781
C      0.677217005068     1.839313029366    -3.720545509510
H      2.368392849603     0.276150285695    -1.378450539768
H      4.202432400541     0.692973192683    -2.958278275502
H      3.780009992742     1.884852129061    -5.087639800551
H      1.434001528011     2.606267874720    -5.569054131284
O     -0.545680817992     2.242229746891    -4.085616365419
H     -1.226257056034     1.928861471533    -3.435789605800

