# STO-3G

title

0 1
C      0.500067224251    -0.952880262294     1.223848255121
C     -0.544010813350    -0.804159882754     2.160355813551
C     -0.391158366464    -1.309316485099     3.466589268109
C      0.807084881418    -1.949853913440     3.840951915814
C      1.852576917043    -2.089246340001     2.906364906539
C      1.697172342241    -1.594519964971     1.595799906912
H      0.364607624188    -0.595014993165     0.205294988613
H     -1.461776502141    -0.295082879853     1.872551543242
H     -1.200353050340    -1.200236652356     4.185586460690
H      0.923464656845    -2.340334251632     4.849792736910
H      2.776009226458    -2.587589628020     3.193812712853
H      2.498114071583    -1.722096467019     0.870714516926
C     -0.817199238002     3.147889279557    -0.869849584373
H     -1.813486905149     3.222827830882    -0.447421375744
H     -0.658080323379     3.590786385411    -1.849124711946
C      0.266884281957     2.707592809638    -0.116519765519
H      1.251974017050     2.755458635278    -0.557614481828
C      0.260461101166     2.467710845103     1.337204532965
O     -0.788061448658     2.660915226330     2.006265898666
O      1.489882123170     2.197821126064     1.962236268079
C      1.454469266565     2.072070085549     3.390713881399
H      2.473270103891     1.836310437589     3.765351156251
H      1.116490042606     3.021771659395     3.863357801408
H      0.776537173716     1.246679593313     3.700480739061
Pd    -0.709591753492     0.930129095438    -1.342667655972
C     -3.305989566961    -0.058784899827    -0.680718540815
O     -2.374806840820     0.841586988822    -0.262639608885
O     -4.498677283227    -0.000400333028    -0.336502400272
C     -2.734677931381    -1.202623391935    -1.561871819631
H     -3.487799605676    -1.415842879167    -2.335008063082
C     -2.537938645337    -2.446553982409    -0.709674620693
H     -2.190664325645    -3.302271834487    -1.317223920893
H     -1.775221756508    -2.248337178770     0.069188203159
H     -3.492209882747    -2.729243802143    -0.216823257362
N     -1.424735252624    -0.798329811478    -2.121511485451
C     -0.742497926575    -1.461117636681    -3.092850676359
O      0.502876273578    -1.369409073892    -3.278677363016
C     -1.519896781118    -2.279913894141    -4.060091989380
H     -1.974930108571    -3.137463041998    -3.545589835278
H     -2.281555492285    -1.631837204256    -4.523816211259
H     -0.829632668291    -2.651734038188    -4.840347498398
N      0.927401878153     1.180310313805    -2.595546782602
C      2.161970415924     0.657825999409    -2.312070372013
C      3.233210884836     0.942576759121    -3.137869124108
C      3.055248075030     1.697385323937    -4.278344474192
C      1.796314104664     2.164384148348    -4.560028821351
C      0.742557812903     1.854540748581    -3.681389999759
H      2.305524047455     0.062716297920    -1.417855252512
H      4.204750031906     0.541913106081    -2.900892652964
H      3.889293073944     1.906773647305    -4.942746332350
H      1.582095478538     2.732785853832    -5.442439420270
O     -0.458586992742     2.311718187602    -4.058633596522
H     -1.169727151966     1.960175927678    -3.464865399149

