# STO-3G

title

0 1
C     -0.637648332909    -2.587691492610     1.033630057629
C     -1.390782610451    -2.778962497483     2.212319357216
C     -2.167243654129    -3.942225032204     2.372260108780
C     -2.193421663799    -4.917509774746     1.354306668264
C     -1.444343054739    -4.729165329798     0.176508569024
C     -0.665144511474    -3.565998766412     0.015574762524
H     -0.013394394053    -1.703691168287     0.929951313734
H     -1.361131229038    -2.032586367270     3.002651506066
H     -2.745286972994    -4.088908594189     3.281364338468
H     -2.794425490641    -5.815263983008     1.478206632209
H     -1.466842305853    -5.479656131685    -0.609674233056
H     -0.087025064355    -3.425573199388    -0.895065384956
C     -1.342798553272     0.711620295574     1.239854271793
H     -2.295368622534     0.242517677141     1.006334124228
H     -0.725017287699     0.293339136533     2.024422955812
C     -1.023080120848     1.989917555254     0.793332306522
H     -0.143922968649     2.454573876804     1.210143860274
C     -1.918819432152     2.849682669898    -0.000578012655
O     -3.101646960966     2.481906706219    -0.233440219279
O     -1.407998540369     4.047265007562    -0.529722343065
C     -2.313918466178     4.806279876759    -1.343237762503
H     -1.802974838621     5.723447350210    -1.707421242667
H     -2.642434037092     4.214557304392    -2.228282841840
H     -3.207888984211     5.116330313073    -0.755646822167
Pd     0.119619071327     0.468015251296    -0.545988549086
C      2.592571772359    -0.163162552933    -1.867039089596
O      1.269134937949     0.000209154272    -2.117664590826
O      3.446024574256    -0.226011012312    -2.769464598034
C      2.935175036438    -0.313819754795    -0.361529115429
H      3.924849106963     0.143129220490    -0.230487019285
C      3.028193934058    -1.783434693665     0.009109246116
H      3.219692303174    -1.906181214241     1.092845219327
H      2.076680297614    -2.292194665077    -0.238674628356
H      3.850932992348    -2.267388941354    -0.558546473699
N      1.881593446181     0.317649157980     0.473268972713
C      2.076697763820     0.819110295571     1.714752389498
O      1.146574933310     1.234473617252     2.471293506042
C      3.464242528857     0.951214055376     2.231966224903
H      3.418130791869     1.393718695192     3.244336706767
H      3.927582304827    -0.044512207933     2.296607694650
H      4.027470155640     1.630628820891     1.569367266446
N     -1.418311472126     0.532215273253    -1.932666035044
C     -1.208412972001     1.403371309276    -2.970618699378
C     -2.149920732459     1.519197871112    -3.974080867870
C     -3.290974439819     0.746377501182    -3.952347390171
C     -3.453467975620    -0.144077004141    -2.923238731513
C     -2.467651302371    -0.225594298355    -1.920089809737
H     -0.320230781117     2.024672940409    -2.984915781137
H     -1.983290815779     2.214736536417    -4.779604526884
H     -4.035958548014     0.830662546726    -4.738863050128
H     -4.307965191273    -0.786604693327    -2.854810273884
O     -2.707310315736    -1.165051908499    -1.007217461947
H     -1.967454643141    -1.356044887969    -0.381253564983

