# STO-3G

title

0 1
C     -2.962200317987    -2.679495066271     0.628081660934
C     -3.037423030911    -2.788670026531     2.031980343347
C     -4.276674070096    -2.649752057389     2.688453493638
C     -5.446648757902    -2.403555397616     1.941980260573
C     -5.376154760246    -2.301800948312     0.538073317868
C     -4.135778843438    -2.441789964262    -0.116340534124
H     -2.008131980276    -2.793250630031     0.121060148447
H     -2.130966798163    -2.987569167177     2.599655291841
H     -4.330878107644    -2.737546344575     3.771593982101
H     -6.403683714440    -2.298295563773     2.448372417204
H     -6.279878029552    -2.120590645271    -0.039796128510
H     -4.085166774864    -2.375408854531    -1.201590717537
C     -1.225995135962     0.368582253747     0.691418229768
H     -1.105320825400     1.320764737850     1.197220573822
H     -1.440170416761    -0.492620518599     1.314070318159
C     -1.363536280562     0.265037170186    -0.683366434384
H     -1.627013804646    -0.690774928169    -1.105005035772
C     -1.356490595130     1.400060277262    -1.617021078884
O     -0.877369723419     2.505086212437    -1.244574481208
O     -1.806322098166     1.204183793105    -2.934495737541
C     -1.831873240873     2.371989574972    -3.767728638991
H     -2.204626866403     2.095715080551    -4.777537215162
H     -2.514313250518     3.143866194102    -3.344886320650
H     -0.812084614743     2.804417162720    -3.880310135227
Pd     0.922880597549    -0.008714540003    -0.075825947602
C      3.311504684555    -0.053275718488    -1.675430313506
O      2.914262666890    -0.009118954431    -0.375640538006
O      4.494189020740     0.079874816922    -2.032929195525
C      2.139290789493    -0.289740953662    -2.700816777595
H      2.513620549206    -0.976888993004    -3.471252804620
C      1.713720460126     0.994736991243    -3.370279656371
H      0.865926772004     0.790461378873    -4.056067500235
H      1.393148253328     1.729985696856    -2.604229393430
H      2.558967235056     1.420122152013    -3.950612601527
N      0.992878552175    -0.804764306162    -1.941812955273
C      0.569132917203    -2.066506318993    -1.866121946625
O     -0.067283096785    -2.533204719151    -0.842939178021
C      0.758382264251    -2.963143855184    -3.023737932829
H      0.359906994711    -2.457071949363    -3.920130458780
H      1.832927373774    -3.187282624608    -3.124393920506
H      0.202844768555    -3.902266829300    -2.843314894150
N      1.239404949576    -0.203559091176     1.968955816288
C      1.914666272245     0.680150095039     2.763828622058
C      2.196017291226     0.344784700986     4.072902320479
C      1.820418506481    -0.881999537850     4.577221069313
C      1.169140068868    -1.757978557236     3.746846839354
C      0.909698771224    -1.385974809286     2.411042230256
H      2.203927465599     1.648353152929     2.371696911139
H      2.721026820266     1.047902777723     4.698319697569
H      2.044088574108    -1.152158223232     5.605801824022
H      0.871867214295    -2.734768629870     4.071761597868
O      0.311194578571    -2.323284496831     1.699063235157
H      0.201954264021    -2.280740606933     0.660246806446

