# STO-3G

title

0 1
C      3.126996564110     2.071922104133    -1.902130311295
C      4.243367428521     1.760035105517    -1.099719767685
C      5.201184727679     2.750886018615    -0.810065487924
C      5.046753431411     4.054241633534    -1.322836559009
C      3.936985483308     4.364404189389    -2.132738552443
C      2.980279816557     3.372154235748    -2.424592366413
H      2.386480604507     1.308743288358    -2.133341597961
H      4.371200129159     0.755330000662    -0.704939082786
H      6.061976669071     2.507790348903    -0.191670669514
H      5.786665146595     4.818527077294    -1.097531631445
H      3.820125899171     5.367078662716    -2.536609159365
H      2.133722298787     3.613548552620    -3.063011164610
C      1.882054910687    -0.920966988034    -0.371597682272
H      2.064920311768    -1.955541384118    -0.098031716971
H      2.064318335723    -0.653061727397    -1.407760257029
C      1.661946541967     0.056327840500     0.594813970032
H      1.610265926868     1.093808730507     0.301343882718
C      1.757650677331    -0.179012148342     2.047523645188
O      2.384640941059    -1.184863745845     2.474946036609
O      1.361344169473     0.854566223463     2.913089338479
C      1.481287521485     0.571591138584     4.314337522293
H      1.123056221412     1.445547167335     4.899462503838
H      0.862251466684    -0.312159022015     4.592732612025
H      2.543085843894     0.379495034820     4.590375832421
Pd    -0.381426471518    -0.696362751700    -0.174567144844
C     -1.470860025549    -2.849482377775     1.358813998775
O     -0.368878956667    -2.054256206150     1.269936900475
O     -1.590723813073    -3.739479075528     2.216407552441
C     -2.557791912911    -2.549553064762     0.281414067027
H     -3.524165271956    -2.670668673835     0.786869342078
C     -2.485919500652    -3.539864910439    -0.863149450125
H     -3.263195970693    -3.303833368388    -1.617653703392
H     -1.491338203447    -3.485879912710    -1.346883071271
H     -2.650994001092    -4.571015920583    -0.485121526488
N     -2.335060659134    -1.193840904834    -0.258287260426
C     -3.264390882696    -0.241179197154    -0.498619168013
O     -2.996001506764     0.969154022529    -0.750550486595
C     -4.696281657703    -0.632890062077    -0.478152258186
H     -5.297911448303     0.238180396842    -0.796431037613
H     -4.844113242055    -1.461042677277    -1.189150803556
H     -4.979240901352    -0.909197163510     0.551167096658
N     -0.359985584783     0.659427691763    -1.759507192402
C     -0.619095742555     1.994868847231    -1.587626813277
C     -0.611325832486     2.840829714481    -2.681558724211
C     -0.379764817569     2.347258963543    -3.947835871632
C     -0.133802520808     1.005262142414    -4.087330091029
C     -0.151824076658     0.186583973043    -2.943916022214
H     -0.796396049528     2.389914207997    -0.593686192414
H     -0.817052963055     3.888597745550    -2.536761991319
H     -0.389022342359     3.005818009068    -4.812228850184
H      0.046605231770     0.554184729354    -5.042503112591
O      0.074291583334    -1.111427893583    -3.179728975055
H     -0.019336426716    -1.634173399776    -2.344628086040

