# STO-3G

title

0 1
C     -2.264982478838    -0.871329455098    -1.433270082652
C     -3.017699952635    -0.103364641218    -2.344571885104
C     -4.424268959687    -0.198675891251    -2.354031258885
C     -5.077336771711    -1.068601045076    -1.456574424910
C     -4.321746141218    -1.849573788553    -0.557367657317
C     -2.915514959812    -1.752817089614    -0.545867244235
H     -1.180404732902    -0.811557305463    -1.415617906992
H     -2.512283912408     0.568081621736    -3.036119661477
H     -5.004209279748     0.394650527245    -3.058287134009
H     -6.162612634660    -1.146856398618    -1.468781848435
H     -4.825574512253    -2.536389024179     0.119937508529
H     -2.309703230292    -2.353239355342     0.125859421995
C     -1.256517545633    -0.105679397357     2.302610423514
H     -2.329205179251    -0.239088964971     2.230063887124
H     -0.671284218246    -1.011023526310     2.209068907431
C     -0.671754775428     1.095863824125     2.712263824837
H      0.384544342048     1.118027509198     2.938163076511
C     -1.417772038000     2.305022424668     3.100839141828
O     -2.673268784774     2.266717537983     3.200451688478
O     -0.698656693321     3.489764689352     3.328932413001
C     -1.490156965171     4.663633372630     3.561106720478
H     -0.819768203904     5.536170500936     3.717375004215
H     -2.142316111478     4.879902918901     2.683539730278
H     -2.122030115229     4.542944113616     4.470384711966
Pd    -0.387060143066     0.948863523565     0.473426987033
C      2.153557655669     1.566627604603    -0.872187514620
O      0.804534423570     1.704388564887    -1.091432462749
O      3.022294675297     1.957913618707    -1.661920321544
C      2.393456024869     0.913926160411     0.523636032807
H      2.204069523708     1.718987863092     1.252031832767
C      3.809796224644     0.432327202256     0.768118455165
H      3.860754344967    -0.127895793237     1.723702919320
H      4.173069364647    -0.184564533301    -0.074822683187
H      4.486223078331     1.309603120378     0.844550939631
N      1.340863049715    -0.098814213592     0.759503910291
C      1.203593871262    -1.411455910392     0.447454502722
O      0.072489651544    -1.985613964089     0.431196190641
C      2.388151267554    -2.240866494086     0.140314612287
H      2.845016114875    -1.863806293747    -0.788219120768
H      3.070199501827    -2.218169567213     1.003578298779
H      2.054690120597    -3.282223763485    -0.026868497670
N     -2.013592785191     2.203133630196    -0.033239046482
C     -3.305674926272     1.868025697950     0.289404617630
C     -4.340668492267     2.741481221288     0.023834115155
C     -4.098582747985     3.955863734838    -0.571754743047
C     -2.812063695874     4.257162137736    -0.925418714378
C     -1.781740909075     3.327550483919    -0.667693999566
H     -3.524984936375     0.919689465229     0.756226435663
H     -5.344887878679     2.463232204507     0.297325798174
H     -4.910880909863     4.648018842456    -0.776316985076
H     -2.560629952917     5.167703875397    -1.431492395480
O     -0.611630292730     3.691227430424    -1.133572696412
H      0.106008773809     2.921232224371    -1.200665032883

