# STO-3G

title

0 1
C      0.447129417544     1.474358089157    -3.000742407759
C     -0.064207308641     2.461122953475    -3.865528436224
C      0.621787230978     2.777529345624    -5.054767484517
C      1.814266199435     2.100051083074    -5.380135956112
C      2.318609724118     1.105193606825    -4.518728993388
C      1.635719591268     0.790044066175    -3.327414969563
H     -0.091038993061     1.230013689236    -2.088441015937
H     -0.993968562263     2.967811198968    -3.615452587550
H      0.228668400911     3.540158686448    -5.723492194219
H      2.342378406931     2.341412805065    -6.300003773841
H      3.232360340733     0.574322110109    -4.774857315472
H      2.019321799075     0.012356532424    -2.670489404437
C      1.089816837859     1.664269343804     0.385079104342
H      0.615721349409     2.642748334603     0.379091280532
H      1.566021398769     1.359142372763    -0.539331972108
C      1.269103188583     0.915430301397     1.541745963207
H      1.823106329769    -0.010468000899     1.477671532682
C      0.985879370488     1.392399266085     2.904725019285
O      1.177003544697     0.613130651614     3.873563292350
O      0.490690572987     2.694908574028     3.100942117061
C      0.287848638696     3.090017944629     4.465309927223
H     -0.101181953960     4.130704969682     4.493631668005
H     -0.453747570577     2.426663159736     4.965829691573
H      1.246908441822     3.062564544353     5.031141131886
Pd    -0.520779090927     0.051163144300     0.294701048432
C      0.495645530604    -2.173962652115    -1.205452735197
O      0.884811585844    -1.222953075041    -0.318534113037
O      1.298201470221    -2.960333687754    -1.737660778925
C     -1.038936605030    -2.223547292512    -1.510388998479
H     -1.318568526593    -3.269545330381    -1.331083772736
C     -1.330917199983    -1.900289175250    -2.960774759747
H     -2.421449901660    -1.951929281762    -3.151975033159
H     -0.974104225588    -0.882328680702    -3.210142784832
H     -0.816874347238    -2.627860401082    -3.624024207292
N     -1.785975358963    -1.274022751271    -0.641082047711
C     -2.866068024790    -1.634953506137     0.138437198410
O     -3.178611057406    -1.053841764200     1.207827834329
C     -3.769259871935    -2.700509643949    -0.362540248588
H     -4.046348460318    -2.467577746688    -1.403771528529
H     -3.266483012831    -3.675683366040    -0.271750357120
H     -4.680195926647    -2.710103370184     0.265185099082
N     -2.036210414993     1.423593205821     0.660257844927
C     -2.325160907955     1.945411314706     1.892127105854
C     -3.260836002819     2.955771164696     2.010471960788
C     -3.936796365817     3.417014914851     0.901072103017
C     -3.682046132925     2.823766548766    -0.308424751264
C     -2.737046693306     1.781304064333    -0.373400436254
H     -1.811608419154     1.578212013732     2.769936423149
H     -3.466755010341     3.374084225935     2.981389178608
H     -4.676872287311     4.207822047824     0.989226823322
H     -4.214045464252     3.090117175242    -1.198996440761
O     -2.641510663734     1.172958140358    -1.551607559744
H     -2.252144028339     0.233818712915    -1.422490258032

