# STO-3G

title

0 1
C     -2.892043595687    -2.856669856517     1.490409717757
C     -3.873131842421    -2.378539323946     2.382285402825
C     -5.237907434791    -2.628879523180     2.133439208324
C     -5.621176183705    -3.363809593026     0.993727582981
C     -4.639768087201    -3.847838545524     0.104741409088
C     -3.275890451657    -3.595051631570     0.352041669050
H     -1.838783892842    -2.677546352730     1.686768654595
H     -3.575936378226    -1.820179512087     3.268340048436
H     -5.993910409324    -2.259635861159     2.823098668010
H     -6.673929358847    -3.561103696125     0.803151744060
H     -4.935947868592    -4.420792029515    -0.771307723306
H     -2.506461688071    -3.957357844553    -0.324067032566
C     -1.360719178165    -0.089848768762     0.187541528637
H     -1.297248223643     0.174404896361     1.238815985258
H     -1.778770624633    -1.062628134806    -0.035812620686
C     -1.150402206875     0.839297468506    -0.827632707164
H     -1.379217627654     0.550238017979    -1.842153602319
C     -0.832892068343     2.262980591340    -0.627791151140
O     -0.491821977859     2.672582887914     0.513032554966
O     -0.696018091730     3.077299492315    -1.764530990425
C     -0.287409872527     4.431087915084    -1.521067671010
H     -0.224359351163     4.977162986667    -2.487186213304
H     -1.024295917392     4.957255490601    -0.872318534135
H      0.716806141902     4.461980935186    -1.039866646650
Pd     0.831894338553    -0.253009467924    -0.505356485911
C      2.907001637561    -0.662127829973    -2.445711465646
O      2.758262904503    -0.455651728799    -1.109841919589
O      4.005408932161    -0.657449203632    -3.026834308538
C      1.548883889078    -0.901481713363    -3.216464293724
H      1.731224816439    -1.672203148650    -3.976916379486
C      1.066432609662     0.352851318209    -3.906454247794
H      0.099736481076     0.150779311393    -4.412047858274
H      0.919777750198     1.162383924897    -3.162769594988
H      1.810866944172     0.682383995095    -4.661179716289
N      0.543801282641    -1.270465348366    -2.211737868405
C      0.130394292122    -2.500848008371    -1.890878164395
O     -0.265663757607    -2.829493472785    -0.708544119319
C      0.056369596160    -3.528814616412    -2.948507454016
H     -0.518441250249    -3.113674839423    -3.794208134108
H      1.081853101997    -3.801584009362    -3.247028713493
H     -0.457070229888    -4.421348889559    -2.545063200368
N      1.315174967659    -0.030070051523     1.498791559475
C      1.967267764360     1.019678923956     2.083183184963
C      2.313893447131     0.952287025613     3.418064610508
C      2.012425291007    -0.166962968650     4.164038351579
C      1.365381835214    -1.207698762309     3.548515555367
C      1.035724580008    -1.107534351439     2.180691915817
H      2.199011471841     1.903904354680     1.500754046244
H      2.823381491810     1.784637227101     3.874252788042
H      2.284216718204    -0.224266914069     5.214590721426
H      1.112993185445    -2.109064489373     4.069906582820
O      0.428733166121    -2.175067606937     1.695552529800
H      0.201980614099    -2.313191281315     0.684813367507

