# STO-3G

title

0 1
C      2.253369688226    -0.427252169797     0.139711563813
C      2.891817464936    -1.174776307547    -0.871137192081
C      4.292917413627    -1.322676456893    -0.845265877785
C      5.050286307293    -0.729977544558     0.185325411583
C      4.407311214896     0.010479458358     1.197569159488
C      3.006446885483     0.159448263186     1.175758068205
H      1.173800239477    -0.302439436909     0.117576188317
H      2.302736095353    -1.639511008105    -1.657269666130
H      4.788978015550    -1.900487249983    -1.621555723123
H      6.131680034914    -0.847095444982     0.202061877651
H      4.989852008780     0.464091868751     1.996213541610
H      2.501970731244     0.723506039419     1.958074984001
C     -0.802736516577     2.214593370360    -2.098322314959
H     -1.556008499792     2.996911880365    -2.067130503869
H     -0.857988181970     1.501098324330    -2.913334869324
C      0.311068469163     2.224251912253    -1.267227373658
H      1.096310193901     1.496404510587    -1.407431493209
C      0.613393517407     3.293267806208    -0.297877547410
O     -0.103207682565     4.330374524727    -0.263971812123
O      1.663133322103     3.099022977167     0.614189930140
C      1.829068300243     4.121458990195     1.605798929104
H      2.680047635838     3.855182005643     2.268859750020
H      2.052595779666     5.102688177089     1.128998269005
H      0.913770331869     4.214715793287     2.233831401419
Pd    -1.251586978112     0.646354804303    -0.499871839509
C     -0.611774896226    -1.906669761416    -1.574644957266
O     -0.616316959763    -0.597063244539    -1.924459910944
O      0.089128570850    -2.754783121306    -2.157135755461
C     -1.592215128553    -2.287058150647    -0.422783654484
H     -1.077945851024    -3.040287619044     0.190544419725
C     -2.845190564856    -2.905723624825    -1.025258212743
H     -3.488792724721    -3.347047364838    -0.240625168729
H     -3.417429898221    -2.127061646075    -1.572708896418
H     -2.570963786790    -3.717088290400    -1.733077682697
N     -1.955194117210    -1.062507951989     0.349690024407
C     -3.012040396431    -0.950249536285     1.220325959295
O     -3.711019552732     0.087244013061     1.350284920248
C     -3.276985032807    -2.068689258832     2.158428440051
H     -2.515166314525    -2.857652467119     2.065077107501
H     -3.243262366389    -1.647929650696     3.178734450685
H     -4.289166995696    -2.457565921534     1.952244300987
N     -1.610211628856     1.821631870030     1.172381250000
C     -2.418753009908     2.927109615999     1.147827483499
C     -2.551550345844     3.707706250257     2.280693945753
C     -1.898724085429     3.367629863668     3.445441687087
C     -1.131347444583     2.231309339870     3.452993431693
C     -1.044202040912     1.457397221219     2.279715920728
H     -2.918471515478     3.210994044166     0.229379406151
H     -3.169601175706     4.589210504032     2.243822179507
H     -2.002153956571     3.976973883987     4.339105955205
H     -0.629092743773     1.886805820141     4.333849990055
O     -0.357175319140     0.322371788592     2.412018469403
H     -0.551290407083    -0.312529023924     1.663412201264

