# STO-3G

title

0 1
C      2.413723997703    -0.454969149550     0.216902959356
C      2.884191745555    -1.436589672251    -0.680238438554
C      4.267624518593    -1.684180325177    -0.783060172683
C      5.182306855356    -0.955418322705     0.003978649620
C      4.713567177351     0.029745638876     0.895581365547
C      3.329949460484     0.276489180447     1.000351632714
H      1.349340835319    -0.263518057167     0.311180933545
H      2.180916260080    -1.991865865604    -1.295070451728
H      4.629086091730    -2.441223392077    -1.475158599484
H      6.249465590312    -1.149889554160    -0.079177914725
H      5.417082317340     0.600413774712     1.498258195679
H      2.970212304625     1.052108262288     1.676662102593
C     -0.668983739765     2.129708824897    -1.970714564467
H     -1.445320649077     2.889946022440    -1.991230589758
H     -0.657371473577     1.405475279496    -2.777019600281
C      0.398418177536     2.190157869274    -1.080575403996
H      1.217895668254     1.493718137888    -1.171370089254
C      0.622675996788     3.308455051110    -0.144974525503
O     -0.158164423027     4.299127567705    -0.150643275742
O      1.722792161697     3.256072744075     0.730089181768
C      1.883621258333     4.385421981956     1.599605375711
H      2.779658076615     4.234289755200     2.238686158421
H      2.032446576134     5.318623055083     1.009907333265
H      0.994983209571     4.505849868498     2.260359668497
Pd    -1.193172612135     0.587050660018    -0.391253298372
C     -0.661824596378    -1.966683222593    -1.532617306103
O     -0.486650108897    -0.649534617930    -1.784103157252
O      0.020889695719    -2.851692640538    -2.086096013838
C     -1.803267725033    -2.298189986547    -0.532799424386
H     -1.419144961229    -3.124137875485     0.083364781718
C     -3.026447757647    -2.773540275536    -1.301656674041
H     -3.808017691452    -3.144269382981    -0.611419963753
H     -3.439265907470    -1.928439444651    -1.891591866028
H     -2.751257485450    -3.600076311492    -1.990749491676
N     -2.161990394060    -1.088895237812     0.245811257565
C     -3.115911027177    -0.989272386590     1.201667493170
O     -3.669360679704     0.097014278553     1.548813171879
C     -3.539444091915    -2.199025643916     1.956289560174
H     -2.886395611575    -3.059325073082     1.761405370329
H     -3.482250123769    -1.943081080306     3.028118017622
H     -4.586558542565    -2.417680181039     1.685691831199
N     -1.638813715770     1.807288249245     1.225274519951
C     -2.711932890452     2.657031780707     1.258043988603
C     -2.945362088175     3.426285832444     2.384136594056
C     -2.126786870096     3.318112913579     3.486681854600
C     -1.066964995258     2.445767008196     3.433465843885
C     -0.870645630964     1.695808115988     2.248047281545
H     -3.362911480331     2.738286231907     0.395591981999
H     -3.788845176748     4.095601494907     2.397193907466
H     -2.317237420148     3.911407573281     4.376904241239
H     -0.406681706185     2.329715614521     4.265698487386
O      0.177153100347     0.847971140658     2.164284107948
H      0.721096602598     0.734666460012     2.962323138293

