# STO-3G

title

0 1
C     -2.633786099971     0.089469221523    -2.353662828340
C     -3.237760835030     1.038727087110    -3.202384185018
C     -3.124594769864     0.910612958951    -4.601747582259
C     -2.410008396421    -0.171445642647    -5.153414699446
C     -1.811194751867    -1.125127461509    -4.305103853885
C     -1.923477769796    -0.995893384258    -2.906760370892
H     -2.726230004760     0.181559088423    -1.275632002330
H     -3.797145558967     1.869639348537    -2.776525363624
H     -3.591945932045     1.644046846990    -5.255304299473
H     -2.324499879577    -0.272635928770    -6.233151846211
H     -1.264448267360    -1.963799402064    -4.730555311289
H     -1.468265322019    -1.722510070725    -2.238820002309
C     -0.066218101059     1.455794710025    -0.622360058498
H     -0.330247152143     0.560979903447    -1.170278800201
H     -0.869556104475     2.165686233098    -0.460170258495
C      1.250806569332     1.792806115077    -0.340571082829
H      1.483173687340     2.761795369872     0.079346010454
C      2.410301482337     1.028778414726    -0.835219696864
O      3.566012059374     1.451222482809    -0.565387277514
O      2.214923306370    -0.076572021088    -1.685200304163
C      3.401304797875    -0.669614314844    -2.229989382921
H      3.118190813124    -1.521483097290    -2.884721757269
H      3.963946869103     0.068257955055    -2.845807415489
H      4.060663949563    -1.054803348826    -1.421014526202
Pd     0.396857669641     0.837463265674     1.573544382051
C      1.566249913980    -0.769032506899     3.647748673909
O      0.639371229860     0.212782867310     3.478843613085
O      1.919596242604    -1.194973406527     4.759962101213
C      2.175638690542    -1.320803581359     2.301000767940
H      2.306518793674    -2.404002300115     2.420562820241
C      3.521703240616    -0.704284458868     2.006191407747
H      3.912077577531    -1.103131527396     1.048728714551
H      3.425621401918     0.397481333954     1.924835932077
H      4.238244552750    -0.946706249583     2.818645254630
N      1.251104400282    -0.943607526216     1.220329665779
C      0.339247775122    -1.732156588972     0.638117824185
O     -0.802502117280    -1.305710279167     0.213990809376
C      0.670296714244    -3.151078772210     0.398498114851
H      1.650012594233    -3.191179862982    -0.108243917451
H      0.685654411575    -3.680636549640     1.364558528429
H     -0.107369574251    -3.594155543814    -0.250843130367
N     -1.174657559657     2.098076695800     2.088058627949
C     -1.123037388184     3.196290531003     2.900762899277
C     -2.292668435395     3.818985367127     3.286598309312
C     -3.514634060277     3.329298789267     2.877644810022
C     -3.537331349932     2.209957583041     2.086150656964
C     -2.322980615917     1.591376889987     1.722761180566
H     -0.163977247269     3.589167636309     3.217881309395
H     -2.245559110166     4.689163520227     3.920622299815
H     -4.438362043663     3.813188954517     3.183755783309
H     -4.455117943850     1.766014947644     1.755359370196
O     -2.473901034193     0.501543424617     0.994350911708
H     -1.697827637006    -0.156546295054     0.743394861137

