# STO-3G

title

0 1
C     -2.462992687757    -0.161379087088    -1.516033431928
C     -3.646781980307     0.579968633826    -1.332053854825
C     -4.418156310463     0.969237039467    -2.445596052120
C     -4.006723431469     0.611262344981    -3.744834331321
C     -2.828513638108    -0.141626641046    -3.927050634349
C     -2.055014950973    -0.528441879998    -2.814666271185
H     -1.859713607702    -0.468466634095    -0.664446419413
H     -3.979934421691     0.834341233972    -0.327641695382
H     -5.334678298081     1.536942248157    -2.299464011315
H     -4.603500802662     0.907179140661    -4.604988911155
H     -2.518071386011    -0.429927747278    -4.929032861833
H     -1.150511288038    -1.117654807012    -2.932157453018
C      0.596954691594     1.248393990122    -1.201367407749
H      0.641171142242     0.341360327201    -1.795033180378
H     -0.271301413932     1.874363419163    -1.373930778124
C      1.660495839619     1.635742931679    -0.383394849440
H      1.659990889447     2.577896103998     0.144542686033
C      2.983338493566     0.981680134682    -0.379889055253
O      3.852732833897     1.406564869948     0.427632242455
O      3.308945079340     0.031730494157    -1.365234224107
C      4.644734939287    -0.487409566681    -1.323006483073
H      4.776040084257    -1.226247937415    -2.142657793932
H      5.389725929930     0.327491965653    -1.468349880686
H      4.839484121385    -0.999890332136    -0.354550934136
Pd     0.157929986965     0.441362173623     0.875429758872
C      0.338658433403    -1.606968009750     2.951968454570
O     -0.500066004612    -0.633613262215     2.490544466971
O      0.091620007299    -2.323666287094     3.928349327395
C      1.634101467376    -1.683510296586     2.087439498843
H      1.982727982257    -2.721959525355     2.138612063281
C      2.727782732768    -0.797421307201     2.638973360021
H      3.641869667504    -0.907052461387     2.020096834091
H      2.408753202424     0.264390684505     2.615414076618
H      2.964762873304    -1.085147464704     3.684745154855
N      1.310867464931    -1.214699279128     0.725089081593
C      1.188577650819    -1.991807559404    -0.379955204994
O      0.561954581082    -1.649306415676    -1.424669830371
C      1.891532271007    -3.297508528342    -0.399370877574
H      2.948856274255    -3.125609355048    -0.137501569362
H      1.387959758970    -3.980940221335     0.303290546296
H      1.826772310817    -3.715984467128    -1.421032167938
N     -1.300459450865     1.986098121233     1.265775068017
C     -1.186093915870     3.275900886072     0.806518494165
C     -2.234205562270     4.164046091982     0.923737939515
C     -3.413882993217     3.782366213050     1.514474792350
C     -3.509199080479     2.507529138862     1.994568099399
C     -2.415026268778     1.623720051881     1.866747257811
H     -0.276650961495     3.615000465141     0.336196771261
H     -2.125569616712     5.167433003162     0.544704027735
H     -4.243730432613     4.478125549255     1.607481687595
H     -4.394475159560     2.151488375999     2.484186346863
O     -2.641408898674     0.448322383987     2.393492554522
H     -1.803467352146    -0.175425391824     2.537278365829

