# STO-3G

title

0 1
C      2.796366520695    -0.271752630012     1.814638449810
C      2.183871465882    -0.265125949167     3.087042632104
C      2.979901770356    -0.216460911299     4.246866807740
C      4.385255488184    -0.171893798061     4.137858478546
C      4.996369676709    -0.180418920441     2.868702022777
C      4.202170743531    -0.234645730641     1.705785314902
H      2.178306314105    -0.358282705087     0.921123726827
H      1.100040086957    -0.304923373256     3.164462989176
H      2.510167633945    -0.216594901201     5.227448753219
H      4.998766323855    -0.133358179066     5.035133584621
H      6.079959055525    -0.148395017416     2.784652943161
H      4.673153985050    -0.250776274583     0.725228082738
C      0.523163698781     2.699401561863     1.717213250005
H      1.470783887732     3.193782868990     1.518498920666
H      0.484417946685     2.044513922755     2.578703891101
C     -0.648030598597     3.062446827071     1.056453692646
H     -1.586624620973     2.642678926712     1.384218176671
C     -0.739010437006     4.153535841723     0.070101089457
O      0.259098263873     4.891271964709    -0.146791440878
O     -1.933717837710     4.308197289798    -0.653444656693
C     -1.935424622697     5.351095033963    -1.638886137274
H     -2.923388281506     5.377441690783    -2.146974796525
H     -1.762122204554     6.343792446216    -1.164369971823
H     -1.150928683188     5.169782602756    -2.409010710852
Pd     0.090562414492     1.056396597809     0.172757217923
C     -1.517135094337    -0.954584420975     1.438687990475
O     -0.996776307904     0.280381509723     1.643281003877
O     -2.407975481290    -1.433650995257     2.162342136475
C     -0.886370628089    -1.739180627796     0.256271508147
H     -1.740917479788    -2.205102936666    -0.254841110887
C      0.026424705329    -2.831079386169     0.794480959919
H      0.443255226192    -3.446482775109    -0.025035246189
H      0.866844286041    -2.376810529236     1.354806790616
H     -0.539786417261    -3.498790324997     1.478046305568
N     -0.107871766910    -0.829088998954    -0.621360716428
C      0.449833881097    -1.135298927504    -1.819316327659
O      1.249277814090    -0.376701657040    -2.440512934118
C      0.093757978720    -2.395179187712    -2.527447474344
H     -0.208051328687    -2.115026311939    -3.551934542534
H      1.006790212157    -3.012180676242    -2.575002087834
H     -0.727860009964    -2.948825129737    -2.056974272459
N      1.110416731224     2.054471173516    -1.320153740147
C      0.415122807588     2.286505687805    -2.478558630622
C      0.966736190437     3.071159887203    -3.472628712180
C      2.237473449968     3.584093774251    -3.327453315642
C      2.928263245142     3.294500311592    -2.179991793434
C      2.314705348796     2.503821700770    -1.188934688746
H     -0.585470190798     1.886859649731    -2.595020613934
H      0.407180751356     3.259987342457    -4.372610254323
H      2.685490392705     4.191804896426    -4.108657247789
H      3.925206824206     3.646355388961    -2.010577867300
O      3.099889370180     2.253251552717    -0.136566613848
H      2.740633210254     1.595050432662     0.502771940547

