# STO-3G

title

0 1
C      1.513384930064     0.647458252888    -2.317363393780
C      1.270118821365     1.616428019874    -3.313176521268
C      1.278651821044     1.242995436910    -4.671617629062
C      1.534265928529    -0.095233902495    -5.031364312641
C      1.783470285766    -1.060828772841    -4.034739105273
C      1.775275096823    -0.691389602851    -2.675750330974
H      1.523401387318     0.938831109512    -1.270526481742
H      1.079431620082     2.649936725612    -3.030966770731
H      1.089396959259     1.988894733634    -5.440002870085
H      1.539742254699    -0.383404561594    -6.080117130031
H      1.973142842045    -2.095244277749    -4.308328024818
H      1.951538340345    -1.440498077203    -1.909584918731
C      0.486224076354    -0.203195214114     2.307663762262
H     -0.073200764384     0.160146378833     3.164675220045
H      0.648586271623    -1.273662349778     2.236109613638
C      1.133277614767     0.650088875714     1.426354118023
H      1.778102230781     0.233543127480     0.666704240640
C      1.188904386147     2.113724685211     1.577859255278
O      1.725678573163     2.791389451468     0.663523401295
O      0.576322628305     2.727511783305     2.685034637115
C      0.571700563564     4.161770024101     2.683002465386
H      0.053490501026     4.529014004728     3.594648291508
H      1.610927249095     4.561830350331     2.685606591093
H      0.025628251274     4.554026726987     1.795170334915
Pd    -0.901813493081    -0.129005169706     0.502329226876
C     -0.552067966534    -2.523922525807    -1.023376400392
O      0.001405139204    -1.839009272821     0.013191118065
O     -0.019563279660    -3.536740599577    -1.511788107386
C     -1.900773401266    -1.938320132455    -1.549724027460
H     -2.573309412609    -2.801832092087    -1.642301285795
C     -1.744152521463    -1.308321630707    -2.917875010746
H     -2.729817842671    -0.973051274241    -3.296722523075
H     -1.076036737659    -0.428603505003    -2.858220306931
H     -1.313262302446    -2.041116975333    -3.632214839747
N     -2.390674848014    -0.913399450009    -0.609170722743
C     -3.649145703092    -0.774224359182    -0.130243745030
O     -3.948633627307    -0.100170218390     0.898568406753
C     -4.759328170166    -1.427969948221    -0.867481655215
H     -5.713497558931    -1.105698934076    -0.411947819540
H     -4.723547897201    -1.095318484523    -1.916977195335
H     -4.665273143865    -2.521920075697    -0.771925053307
N     -1.787855300845     1.721132201371     0.821245313706
C     -2.480505823384     1.981792594775     1.975117081117
C     -3.088060129242     3.211388031668     2.151030235698
C     -3.035941533417     4.164741280730     1.157987511427
C     -2.351521650799     3.868104036352     0.007884636868
C     -1.741237104591     2.605468741511    -0.121319149479
H     -2.526752317121     1.234952855553     2.759056901596
H     -3.627670685607     3.406455418702     3.062459109596
H     -3.526206651056     5.126305165457     1.283148401850
H     -2.277344314824     4.559057061096    -0.807499419474
O     -1.116934933341     2.417828622704    -1.284642801621
H     -0.701153487243     1.526616104635    -1.372466976519

