# STO-3G

title

0 1
C     -0.405409275276     3.278384958257    -1.363548012514
C      0.003516505813     4.554374322686    -0.925972505528
C      1.000182288431     5.258214834972    -1.632202840852
C      1.586820184111     4.686718113876    -2.779099730230
C      1.165452129978     3.417499081598    -3.226139525630
C      0.167156286422     2.714307468133    -2.522960800962
H     -1.170212310816     2.719154610186    -0.829151225308
H     -0.463636191540     5.008578625336    -0.053988463264
H      1.308957087545     6.246497772779    -1.297814137760
H      2.352715565995     5.231625603903    -3.327247520003
H      1.602661485616     2.984593886848    -4.123933471938
H     -0.179283907972     1.740110486402    -2.853873061938
C      0.257510256958     2.708770793692     2.019682418416
H      0.990036977897     3.184173178663     1.379591396476
H     -0.700437029290     3.210294204829     2.119702065705
C      0.549572758114     1.636470404056     2.856547006361
H     -0.192046666566     1.313048360661     3.573340844842
C      1.872858544393     1.005883339144     2.991334610846
O      1.981747213649    -0.017296478778     3.716052852955
O      2.975740744846     1.537198372609     2.298738969674
C      4.187560621809     0.773596977702     2.374536220230
H      4.981357396046     1.283416338385     1.787651209618
H      4.535571814472     0.684129593771     3.428698448974
H      4.039369095425    -0.243404830849     1.944049451123
Pd    -0.654051631793     0.828799838556     1.073812504021
C     -3.297420636985     0.547125421639     2.163350246090
O     -2.262067415306     1.427563863644     2.106014713131
O     -4.358148913577     0.785493026702     2.764588126347
C     -3.021508373437    -0.799802490795     1.416784857159
H     -3.989907792472    -1.176059049407     1.064911727838
C     -2.438138839484    -1.835257351370     2.354486432109
H     -2.296090599848    -2.794454511316     1.813773471345
H     -1.455271212891    -1.493662528802     2.741873318055
H     -3.125153492214    -2.007272193581     3.209911262515
N     -2.033607512440    -0.559256692767     0.332634502534
C     -2.373755956787    -0.325579170263    -0.985534343868
O     -1.638107176380     0.315835956484    -1.771183443515
C     -3.612953639364    -0.938487064799    -1.517810709213
H     -3.597229423651    -2.017200364928    -1.285008615217
H     -4.482407046170    -0.427109119600    -1.073069147390
H     -3.632307333326    -0.796566896425    -2.614833523500
N      0.991548184695     0.106146834049     0.023269406321
C      1.986798398269     0.918406439404    -0.457627735895
C      3.082657777296     0.371335599658    -1.095412432925
C      3.183406894896    -0.989645254593    -1.272378574453
C      2.161081175266    -1.779560311174    -0.820255464130
C      1.044204566515    -1.181377603602    -0.199995919463
H      1.936254439036     1.988430414070    -0.316466565194
H      3.859174420189     1.023830968203    -1.458512948849
H      4.043356091574    -1.424037312532    -1.774912320861
H      2.156225236246    -2.841572731007    -0.960342355863
O      0.073551752131    -2.011530039271     0.109112687651
H     -0.850555966362    -1.502926406676     0.263590021857

