# STO-3G

title

0 1
C      0.246340118344     0.336579580180     3.313024818971
C      0.117204213429    -0.377178893487     4.520195316028
C      0.964156381700    -0.081901167371     5.607149687129
C      1.935124666395     0.932055726794     5.483788655960
C      2.055407475361     1.652503547322     4.277691559641
C      1.211083164990     1.357421334195     3.189009359473
H     -0.402744004255     0.102802060700     2.471021627175
H     -0.649399985416    -1.145432184051     4.618517063593
H      0.862425624076    -0.630037208980     6.541281734782
H      2.586824311303     1.163906348749     6.323459708866
H      2.797965939496     2.442084002641     4.187828077397
H      1.303815107084     1.901966473398     2.253243058519
C     -1.031290164294    -2.714660353689     1.176220355926
H     -0.706319644538    -2.563326699975     2.200846415986
H     -0.489915991271    -3.456096121812     0.599817443646
C     -2.205127708414    -2.177049049922     0.672542773103
H     -2.524544970189    -2.457948313511    -0.318296207933
C     -3.161563502824    -1.369720758173     1.445776476608
O     -2.836031525440    -0.945749074175     2.587401024945
O     -4.426068310912    -1.094322316002     0.896377776762
C     -5.347066142363    -0.409457239132     1.757706310385
H     -6.302995271418    -0.241880547476     1.216367170467
H     -5.564223851128    -1.017006225692     2.665441821348
H     -4.944152956602     0.581055697008     2.067649226940
Pd    -0.342739889902    -0.736339691177     0.190210145500
C     -0.211776914030     2.058835302492    -0.465760113443
O      0.600447843966     1.008494455876    -0.172076322613
O      0.197055021338     3.231187779234    -0.535289772069
C     -1.717986656237     1.671473663699    -0.703598208547
H     -2.062878981209     2.246899514410    -1.573153192761
C     -2.584257144406     2.031769784427     0.479638901600
H     -3.634331104667     1.746801320240     0.265702485759
H     -2.238546517796     1.490307582834     1.383452882155
H     -2.535255359513     3.124380157364     0.670018983012
N     -1.778914086326     0.215951409538    -0.884030915988
C     -1.954260155542    -0.453784477527    -2.025103733239
O     -1.512788968690    -1.652554625106    -2.212633290162
C     -2.763126268755     0.152972874980    -3.101227171528
H     -2.937083421461    -0.608462474247    -3.883449373901
H     -3.726605827470     0.470099772114    -2.666233456730
H     -2.208869853028     1.002977463168    -3.533792599980
N      1.477747039387    -1.745692775975     0.259980438915
C      2.532693312373    -1.490876292759     1.093070469194
C      3.725398952252    -2.161207601664     0.911075711856
C      3.868714442630    -3.071184104822    -0.113614653049
C      2.801720391857    -3.289345504610    -0.946453410646
C      1.600966673866    -2.578181402129    -0.739199617632
H      2.427222714172    -0.784756077529     1.905016182452
H      4.549366882257    -1.961639380014     1.576317638908
H      4.807342537635    -3.598446437671    -0.261669020866
H      2.854321758609    -3.971938656585    -1.770880859704
O      0.655332540160    -2.856127458032    -1.614838183645
H     -0.226348697100    -2.295972578288    -1.746555284807

