# STO-3G

title

0 1
C      0.595097519672     1.859012017932    -2.688887337749
C     -0.034294244136     2.707966425556    -3.621940786982
C      0.446526859700     2.771604311475    -4.944865021390
C      1.551399323344     1.987461692616    -5.331200671315
C      2.177546535586     1.139058850496    -4.395657731424
C      1.700194901999     1.071577372414    -3.072552152248
H      0.241997895192     1.796952923050    -1.662467402742
H     -0.888537506342     3.314740270601    -3.328135795423
H     -0.036578173261     3.426048303572    -5.666857266521
H      1.921473718765     2.037293131689    -6.352834086949
H      3.029779102349     0.533132428734    -4.693370921720
H      2.179466450162     0.416196088069    -2.350164593113
C     -0.099926552788     2.690812907481     0.737482795792
H      0.808412523124     2.643249370850     0.146813626584
H     -0.881834281977     3.352259024224     0.374983608277
C     -0.170779988219     2.116065364835     1.999838168652
H     -1.036283869590     2.288742969775     2.623304111430
C      0.963744622299     1.457814943619     2.672363729192
O      0.764751788310     0.917042136004     3.791885808697
O      2.258958083059     1.588145821685     2.141835400670
C      3.270092328368     0.783361184630     2.762506908603
H      4.240949116287     0.955186319565     2.250301895060
H      3.388770743333     1.050782367612     3.836838390664
H      3.020415195506    -0.298445493460     2.670624826451
Pd    -1.074886543153     0.609007417205     0.491185726300
C      0.795784068423    -1.301761264020    -0.526670733142
O      0.726852145023    -0.187950042044     0.247987455279
O      1.878704215572    -1.834874820414    -0.828937324437
C     -0.582858974550    -1.841437671191    -1.013165587091
H     -0.543918718677    -2.927241911802    -0.852389204085
C     -0.788607311914    -1.583443253337    -2.492509537081
H     -1.722880791833    -2.067542041708    -2.838262505928
H     -0.870386336679    -0.496493751292    -2.681158406949
H      0.063150787024    -1.991322739703    -3.077026569331
N     -1.663365446471    -1.172426991532    -0.262481172753
C     -2.795663707100    -1.734933648070     0.220496818164
O     -3.585958533425    -1.165647287971     1.027494024275
C     -3.148936210058    -3.108197493311    -0.220678230406
H     -4.135646122527    -3.365419037541     0.206423724006
H     -3.213480434685    -3.120488695609    -1.319416768624
H     -2.396327704583    -3.816254816225     0.163722268310
N     -2.930609841219     1.548092664637     0.589896116929
C     -3.724589698342     1.479195020343     1.705715004249
C     -4.916197629375     2.178954137468     1.744106594219
C     -5.335927286243     2.907509797867     0.652048544545
C     -4.533823096451     2.931573300292    -0.460336932329
C     -3.325033182742     2.211553346262    -0.446655300049
H     -3.396939662887     0.914627472996     2.571442679992
H     -5.529455687706     2.126549727571     2.628602226195
H     -6.280407848855     3.444757516514     0.671094132396
H     -4.806589109552     3.465823103465    -1.348114690889
O     -2.623109203848     2.286813951018    -1.582521472123
H     -1.828994450796     1.698906335534    -1.569779923007

