# STO-3G

title

0 1
C      1.149487939411    -3.527896877497     1.417955260828
C      0.555329043390    -4.588337851006     0.704187167065
C      0.456091528007    -5.863448722252     1.296514748080
C      0.949909368490    -6.077620121904     2.599080058184
C      1.542116171512    -5.015162203433     3.312005646784
C      1.641711160331    -3.739685773655     2.721555032775
H      1.225967446360    -2.549261993086     0.955254940495
H      0.172457367859    -4.415641859608    -0.297689259635
H     -0.004587386743    -6.680846310649     0.746521933659
H      0.873771925849    -7.062538804097     3.055190669987
H      1.922507323845    -5.178869763615     4.318049385954
H      2.087251491399    -2.912421469193     3.268367604974
C      1.072350592826     1.927123691739     1.139023127877
H      0.883908569190     1.765961727415     2.193953584005
H      2.112266923646     1.938459196730     0.835105152664
C      0.067740764082     2.299297045063     0.252266280727
H      0.324892462045     2.563828963840    -0.763689873644
C     -1.309300970728     2.640150374084     0.656174342624
O     -1.631812559392     2.648966829893     1.874466832894
O     -2.206207677014     3.065407093642    -0.339608399611
C     -3.479483226283     3.538917291205     0.122911729193
H     -4.099405786168     3.842103974017    -0.748321494459
H     -4.024637795971     2.742489752584     0.677261178965
H     -3.353931331673     4.425929954208     0.784807630827
Pd     0.329104073028     0.035079675153     0.006321596231
C     -1.559308165215    -2.048786510599    -0.581086671538
O     -0.307499233357    -1.643017792933    -0.925914778150
O     -2.160959674431    -2.963656036565    -1.169159509195
C     -2.198125206563    -1.258680869104     0.623474489106
H     -2.675766310035    -2.001777182156     1.274745401106
C     -3.249785825602    -0.281763339273     0.156086110517
H     -3.640184513688     0.282533276044     1.027804442551
H     -2.807074853675     0.428340938825    -0.570303524894
H     -4.085595297989    -0.826265643021    -0.330928296816
N     -1.124279745754    -0.499151958063     1.277529432595
C     -0.560848588740    -0.743953047119     2.466135079908
O      0.667620234525    -0.456241005467     2.741880819119
C     -1.373773966895    -1.351976418673     3.536963849311
H     -2.307425991511    -0.771080700094     3.632040026033
H     -1.564540825111    -2.406262228428     3.275740372856
H     -0.805284004401    -1.308974225660     4.484179930725
N      2.249489506665    -0.085341394558    -0.779278084327
C      2.595602629378    -0.113106448741    -2.101602937752
C      3.894473375044    -0.404850320843    -2.464215082277
C      4.842553585238    -0.689551906433    -1.505061717155
C      4.462233436801    -0.679742986205    -0.188009676311
C      3.123235883561    -0.390950501346     0.147896279149
H      1.854828284444     0.116287425280    -2.858809253118
H      4.162838448211    -0.419365094006    -3.507827366554
H      5.865004539267    -0.926713470388    -1.786980072273
H      5.145693157221    -0.918871498526     0.602380366270
O      2.869214631445    -0.460381327833     1.438864213765
H      1.908745773253    -0.419731210589     1.874186545109

