# STO-3G

title

0 1
C     -0.473755453898    -2.229944131688     1.461578512185
C     -1.205829158954    -3.064205272581     0.593414680774
C     -1.237776309448    -4.457022830523     0.809499133084
C     -0.535295904650    -5.020042267081     1.892935495991
C      0.190781400746    -4.187003368791     2.767756708650
C      0.217145992073    -2.795363798535     2.553338750032
H     -0.437183883263    -1.154532327007     1.312295909898
H     -1.759561679464    -2.638295555538    -0.240717100414
H     -1.812871467758    -5.097680347517     0.144957557967
H     -0.561297906116    -6.094389572972     2.060984137514
H      0.723237398513    -4.616134457501     3.613887957221
H      0.765319682096    -2.149811725743     3.237921850942
C      2.294182094650     0.065225554256    -2.045804824642
H      3.152196405640    -0.517793143127    -1.725279923573
H      2.433614572174     1.114767341357    -2.294884406195
C      1.073668993270    -0.514733860184    -2.385439898997
H      0.322096626556     0.123748648056    -2.820058568855
C      0.796925282856    -1.956803162394    -2.487599139213
O      1.738242827753    -2.787931285256    -2.388370532444
O     -0.519476577398    -2.372393533797    -2.752784914556
C     -0.699703059344    -3.781443685942    -2.956698316627
H     -1.774728386198    -3.994040010266    -3.140881066267
H     -0.120203251921    -4.128684154744    -3.842231546579
H     -0.377627492493    -4.358268400931    -2.060055509849
Pd     0.951648284571     0.513710553276    -0.277311474444
C     -1.029418193625     1.987297457250     1.283236781681
O      0.154956766533     1.320400659811     1.423924475172
O     -1.614239113490     2.539743901339     2.223204069326
C     -1.549731716628     1.955846431523    -0.181652725085
H     -2.100705857557     2.895061280346    -0.314661729389
C     -2.512164191908     0.812328289058    -0.418009420900
H     -2.923153893916     0.879920241792    -1.446308096522
H     -1.980133704776    -0.152954204855    -0.317644143379
H     -3.348353905810     0.853057243881     0.311526433755
N     -0.411215170959     1.781648524504    -1.103384345797
C     -0.091849791241     2.574339792439    -2.152505756154
O      0.954183047569     2.438192977856    -2.852625490452
C     -1.045815330788     3.636759605622    -2.557602887184
H     -0.664921019037     4.113644940352    -3.479638602647
H     -2.023496527756     3.170449516248    -2.763414002066
H     -1.100742317700     4.394231871036    -1.757097181326
N      2.330037477119    -0.534952426058     0.949966825107
C      2.760476455637    -1.811926212811     0.694490509898
C      3.800959316216    -2.355370271024     1.419373302072
C      4.412837872569    -1.633484815262     2.417470387292
C      3.936555635495    -0.380843282095     2.693844885039
C      2.855116256395     0.133561400642     1.947739817405
H      2.281824000032    -2.401968249073    -0.068798396131
H      4.130363182998    -3.357309426566     1.196549344748
H      5.235048433574    -2.056833104107     2.988243987835
H      4.339559302364     0.219454645398     3.485164983740
O      2.424569305433     1.304789859211     2.361650780284
H      1.447527963361     1.514965623366     2.071049047445

