# STO-3G

title

0 1
C     -2.346544978017    -0.468141956889    -2.445002297158
C     -3.353397619081     0.518433160118    -2.441621727080
C     -3.785579973236     1.094374872142    -3.652873678581
C     -3.211711657739     0.683941096394    -4.873230245096
C     -2.208309334573    -0.305701779080    -4.880305418139
C     -1.778733597517    -0.881553042530    -3.667479583822
H     -2.017255246575    -0.919214846370    -1.513773568860
H     -3.795468271142     0.822381455064    -1.495633382469
H     -4.565990756253     1.852476114624    -3.646738263791
H     -3.546321223963     1.126892981207    -5.808758921684
H     -1.768487287318    -0.627477881212    -5.821804234156
H     -1.009385924632    -1.651142022802    -3.673074781822
C      0.121934212062     1.120760403410    -0.812750655037
H     -0.016403614633     0.151026181020    -1.271153066018
H     -0.747811976650     1.767725924221    -0.819288160439
C      1.373992629348     1.598591326968    -0.448097192675
H      1.485912891335     2.623211407939    -0.122027685948
C      2.633563794210     0.893582314669    -0.743803780780
O      3.717088860242     1.426892227730    -0.386260727880
O      2.616837400917    -0.288418551847    -1.508326987589
C      3.897689208113    -0.805532935568    -1.894527170588
H      3.755456807843    -1.733127071762    -2.489396142247
H      4.445733046547    -0.069568730825    -2.525601347880
H      4.513029280488    -1.054801495210    -1.001821227064
Pd     0.412619410426     0.783915243923     1.467176039363
C      1.414701932434    -0.614440914769     3.767107185740
O      0.522295835928     0.359209233998     3.439640972834
O      1.692679426516    -0.925511038617     4.937312839979
C      2.089419845429    -1.317787095282     2.525854517683
H      2.184693992909    -2.384380284816     2.766888393067
C      3.466521331791    -0.763514622215     2.252487822578
H      3.897751076595    -1.264683453701     1.363223785392
H      3.406202947677     0.326908907934     2.060616053465
H      4.128715628374    -0.940939395057     3.125601268519
N      1.241787126296    -1.040388153843     1.354923915017
C      0.340107648873    -1.870112590378     0.814377386419
O     -0.764117777254    -1.468327061218     0.282805767489
C      0.642471696984    -3.314237084378     0.753666887927
H      1.648907584311    -3.434432010922     0.316610557769
H      0.584490714695    -3.732663216574     1.771304402128
H     -0.108485136682    -3.809185554153     0.110207435623
N     -1.138797135687     2.139693476493     1.733834631534
C     -1.085775481235     3.333555858712     2.398058690711
C     -2.249375801740     4.033365236355     2.644711294456
C     -3.468238087616     3.528141969662     2.245913905040
C     -3.494261924887     2.316120419123     1.605579378176
C     -2.286567345942     1.622740246954     1.381557926203
H     -0.128762014527     3.737852045532     2.706860511915
H     -2.200504492499     4.977458472041     3.162100825357
H     -4.387634010836     4.072813527948     2.443790240481
H     -4.411547400761     1.857889753495     1.294047345869
O     -2.444683122272     0.451817287631     0.794071313682
H     -1.674969130136    -0.234559519476     0.647608940094

