# STO-3G

title

0 1
C     -2.402750483539    -1.197409288533    -2.322409172639
C     -2.922343651595     0.038634439899    -2.758148058869
C     -3.076251536460     0.297558872078    -4.134615396056
C     -2.711469922107    -0.681090748815    -5.081332311154
C     -2.198277425321    -1.920272598264    -4.648800753846
C     -2.046551311834    -2.177578665128    -3.271052707395
H     -2.287243921982    -1.401015275698    -1.261895070285
H     -3.210825370850     0.783710920178    -2.019991121171
H     -3.481294363025     1.251248716858    -4.466727779266
H     -2.831471490528    -0.482245788961    -6.144092875938
H     -1.923544340663    -2.679312729234    -5.378059419501
H     -1.657963296587    -3.137200540965    -2.936601688146
C      0.419349105090     0.101430567192    -0.973964538410
H     -0.127035839477     0.961870273145    -1.346299532909
H     -0.079609323302    -0.852089967030    -1.080389826264
C      1.757928394341     0.161428744816    -0.599320501779
H      2.277538376909    -0.762263716541    -0.390701271775
C      2.604305508457     1.362731748344    -0.675941379941
O      3.795288743434     1.281634963713    -0.277673988269
O      2.032940525417     2.599480531321    -1.022648541600
C      2.922060523367     3.725095672362    -1.023403613385
H      2.359432811273     4.637466805328    -1.317583063187
H      3.351407475363     3.892863042459    -0.009545884516
H      3.748541431208     3.575977635398    -1.754903225788
Pd     0.531395554149     0.347180749816     1.314166769374
C      1.162180053612    -0.587243582235     3.951540985783
O      0.545841174149     0.460415330203     3.339377112692
O      1.397189065659    -0.632031411663     5.170804474021
C      1.567951656798    -1.758576314500     2.971309339506
H      1.405417094646    -2.706463388865     3.501066177685
C      3.020921233917    -1.673776488549     2.566836683882
H      3.258298190760    -2.494026746539     1.858462833039
H      3.221712178920    -0.701750426720     2.070692634473
H      3.671099268208    -1.765739703491     3.461967615034
N      0.758795529046    -1.597931357015     1.755937070288
C     -0.382858267287    -2.225659597153     1.455474917758
O     -1.319063202000    -1.689773646622     0.748774656843
C     -0.569229378436    -3.622966309816     1.894871583992
H      0.311269390215    -4.206330460810     1.574889445442
H     -0.689279822511    -3.634514241674     2.990639935472
H     -1.483181975055    -4.028175038885     1.421931091470
N     -0.508796810025     2.120584263892     1.061281202185
C     -0.069313059527     3.385717706516     1.334473044668
C     -0.938170248653     4.452625655789     1.222880004620
C     -2.249832550996     4.250406491176     0.850310681304
C     -2.667440295997     2.968779642265     0.599058507554
C     -1.753931264765     1.902194506053     0.732788161073
H      0.962868628677     3.548483642553     1.621943838716
H     -0.585253515735     5.447826229814     1.435968352873
H     -2.938704701225     5.086540879478     0.765131014863
H     -3.678219079851     2.743802126675     0.323755764203
O     -2.278550433485     0.715555175487     0.488943175580
H     -1.775791023785    -0.183878463356     0.635414635263

