# STO-3G

title

0 1
C     -0.905901383142     1.970881638695    -1.849408852412
C     -0.438668813914     3.302052890801    -1.916581859127
C      0.224389030119     3.752433947378    -3.074360031283
C      0.428172463545     2.872093937968    -4.159290020191
C     -0.037114180242     1.542818245802    -4.090035443667
C     -0.711146353273     1.092193067374    -2.936696637304
H     -1.466083169120     1.661629224456    -0.971546390054
H     -0.612916939487     3.957269041815    -1.067628948309
H      0.569943627426     4.782047211062    -3.138092319514
H      0.932600337677     3.223155036219    -5.057349685502
H      0.111522066876     0.868338609545    -4.930807759468
H     -1.082784200978     0.070788009022    -2.886811705043
C      1.496533674613     2.290678352234     1.194047691896
H      0.732090176310     2.998859957455     1.487950123541
H      2.181031155120     2.608022040121     0.416658870233
C      1.774245042605     1.132150355378     1.937623359660
H      2.617084503952     0.509289919118     1.664195497056
C      1.201312435977     0.819044989429     3.259392698583
O      1.565865700736    -0.239265807360     3.834099785854
O      0.361849700381     1.744934036392     3.907049167586
C     -0.011557107464     1.414768694032     5.252479909691
H     -0.663818740030     2.215930010243     5.661518206989
H     -0.571260147258     0.452382787874     5.284067333978
H      0.888928399206     1.337097852513     5.903530920313
Pd     0.354616821588     0.526233134478     0.290904931155
C     -1.209979905079    -1.714379332361     1.333235855088
O     -0.291646196697    -1.509230912206     0.349832239733
O     -1.337840211009    -2.776293045551     1.960310904127
C     -2.130650754889    -0.481376984890     1.524238302706
H     -2.585514556535    -0.574815842040     2.518980289133
C     -3.224267420865    -0.508257125084     0.466639443135
H     -3.901143236727     0.360996618491     0.564339487654
H     -2.765141080427    -0.478564769130    -0.543494301090
H     -3.824513365552    -1.437678305186     0.562812195857
N     -1.350466302038     0.773112693821     1.363402096019
C     -1.775234886417     2.009340463132     1.721129564246
O     -1.278078288696     3.085550248280     1.268866443574
C     -2.835668790591     2.125764276074     2.754825718685
H     -3.779448601463     1.712152314757     2.373357177657
H     -2.490288018527     1.594380807875     3.655801601194
H     -2.975964669229     3.196141573406     2.994251747546
N      1.986935412551     0.030909850450    -0.901850925334
C      2.520592265318     0.952466945330    -1.764076188938
C      3.630675580756     0.635813150351    -2.518643697849
C      4.207394438818    -0.610807001379    -2.427900386572
C      3.637758109433    -1.530034404176    -1.588769462280
C      2.490004806388    -1.181810780279    -0.844626430792
H      2.089272655389     1.940929507461    -1.837484234187
H      4.045974953865     1.374606821730    -3.184173810643
H      5.083551072172    -0.863967602942    -3.018965087773
H      4.019560358865    -2.527104092900    -1.492341232279
O      1.988845948476    -2.152668856255    -0.130127403859
H      0.965651717183    -2.021111003596     0.193089728966

