# STO-3G

title

0 1
C      1.103187520447    -0.681620286900     1.135192157233
C      1.747712861962    -0.360311388650     2.346646503965
C      2.907083067297    -1.059596567727     2.737549590217
C      3.422598543327    -2.082436200597     1.917043863678
C      2.778144599139    -2.403603296614     0.705913337722
C      1.619165563191    -1.705682651157     0.313685883111
H      0.204135231647    -0.147214625107     0.831611895832
H      1.350016585757     0.421398189588     2.990537638442
H      3.400309435812    -0.812291091900     3.675188079734
H      4.316012506438    -2.624459556712     2.219976677401
H      3.175253161279    -3.191419828199     0.069544001103
H      1.137987149234    -1.941115773248    -0.630491475023
C     -1.211891220058     3.218783487863    -0.915284557888
H     -2.281593559345     3.395131786126    -0.979977357960
H     -0.601396569249     3.601137365235    -1.725920534297
C     -0.628669969466     2.751707959583     0.259637682488
H      0.447165233769     2.692961595677     0.344181215078
C     -1.370436299576     2.566248972020     1.521822715406
O     -2.483343754908     3.134116341210     1.682540157613
O     -0.710926621489     1.942467645469     2.594155743848
C     -1.490674490229     1.768486355993     3.785851967607
H     -0.880726062886     1.248852792187     4.555550708995
H     -1.807709349854     2.753066927503     4.199332328627
H     -2.393436903350     1.148512598787     3.579631816109
Pd    -0.979589674307     0.961355840982    -1.172963883410
C     -3.389360262695    -0.438531958237    -0.533479410427
O     -2.697096339242     0.690822957829    -0.223651361218
O     -4.579853711546    -0.603528336775    -0.220385960145
C     -2.538460169454    -1.527266551316    -1.238984644748
H     -3.193623860285    -2.010696844232    -1.977989880242
C     -2.096223257726    -2.563802313934    -0.219514747310
H     -1.487829894195    -3.356427272124    -0.695700857528
H     -1.479127481086    -2.076599803836     0.563542460007
H     -2.982028471665    -3.033014336634     0.258564817129
N     -1.326419270403    -0.919932456462    -1.835945278296
C     -0.535005550880    -1.510463639608    -2.770016121779
O      0.663934189918    -1.184290893808    -2.999163691490
C     -1.126941761110    -2.576046456780    -3.620856572589
H     -1.389695443927    -3.444081439639    -2.998492023304
H     -2.008232149421    -2.156727640399    -4.133721447480
H     -0.376596967420    -2.883183516009    -4.373359162461
N      0.706224391193     1.415552531645    -2.320817913657
C      1.992236972567     1.128909204446    -1.942951302415
C      3.047795300092     1.497199682129    -2.755729402569
C      2.815735990655     2.101287409025    -3.972513645738
C      1.517108041078     2.341357317961    -4.341313582967
C      0.479331038023     1.952597849583    -3.474752543478
H      2.187846786716     0.667992149912    -0.986124008207
H      4.055439846233     1.279487821827    -2.442692502645
H      3.640735314830     2.373477250807    -4.625264973698
H      1.263935676922     2.784610805799    -5.283073908737
O     -0.752496595223     2.189289767112    -3.940627518974
H     -1.441520761676     1.807843823597    -3.339895381865

