# STO-3G

title

0 1
C     -1.062380800764     0.019582092186     3.023529475399
C     -1.065258132341    -1.383796605122     2.880582857378
C     -0.378154674612    -2.189667284774     3.810130582450
C      0.311046840217    -1.594520676993     4.886891661983
C      0.303890295184    -0.192864047199     5.038644002203
C     -0.384899948559     0.612682705972     4.109221803756
H     -1.600929836530     0.635678311996     2.307387653145
H     -1.599077402534    -1.834431012670     2.048258631646
H     -0.390901099250    -3.272396403144     3.703917017218
H      0.832511768513    -2.217276296179     5.610863321480
H      0.815694300184     0.265802833378     5.882221638737
H     -0.410255459667     1.692886342547     4.242652550631
C      0.561662458316     2.454568280509     1.176833589011
H     -0.351578179404     2.857893840329     1.602527196333
H      1.296112883018     2.057964016115     1.866830997018
C      0.857333280394     2.645742344117    -0.170176742539
H      1.810275403998     2.327560026499    -0.570667861317
C      0.050476371840     3.474970875178    -1.081848219568
O     -0.615272286137     4.443580050073    -0.630758862292
O      0.136546395760     3.216165004922    -2.459764290691
C     -0.775907866342     3.955965059405    -3.283915796425
H     -0.637568316780     3.662756698974    -4.346764363557
H     -1.831798181924     3.738696735820    -2.997558082914
H     -0.590647014609     5.051006479290    -3.198305441287
Pd    -0.181342151855     0.606215652077     0.033003425451
C     -2.822863896101     1.023484837958    -0.969812199387
O     -1.877511621999     1.593013706580    -0.165040661871
O     -3.789470726455     1.676876454248    -1.396469960766
C     -2.591950304118    -0.473273376277    -1.266469061231
H     -2.626827438894    -0.615001879190    -2.354978595052
C     -3.697930974684    -1.310620061418    -0.646814754797
H     -3.582856551368    -2.375874853406    -0.934489678386
H     -3.651397590461    -1.227986992049     0.458041630903
H     -4.690094355474    -0.959052415207    -1.000577692056
N     -1.292601408241    -0.942811614731    -0.704021273687
C     -0.820684961878    -2.110741929136    -1.244813895181
O     -1.296753583401    -2.682084179356    -2.262443995581
C      0.204714959416    -2.838305362753    -0.473119016128
H      0.347725941397    -2.360003467760     0.505883695808
H     -0.174091349913    -3.863074293438    -0.318930876390
H      1.133440570363    -2.873141150349    -1.066225038355
N      1.722666902036    -0.245393693836     0.212870337162
C      2.262027049807    -0.621898917823     1.416021588603
C      3.544668844282    -1.128683288631     1.464283166634
C      4.291425533366    -1.260661445446     0.312208198291
C      3.722645533068    -0.881695349652    -0.876481031499
C      2.409314795637    -0.378743094357    -0.878734520653
H      1.688472763815    -0.514201363855     2.326557915452
H      3.963161718442    -1.421073766435     2.414262013693
H      5.302880812012    -1.657657895681     0.345450124779
H      4.243417767928    -0.964138415875    -1.810771759978
O      1.937943823553    -0.058795763027    -2.079776480300
H      0.976372241605     0.190080731284    -2.051679221870

