# STO-3G

title

0 1
C      2.680504851477     2.792836037027    -0.665109982655
C      3.377248710431     2.812295034352    -1.891308077260
C      4.715945943373     3.249387271380    -1.944346332569
C      5.360884379121     3.668634763354    -0.764281437041
C      4.662984341193     3.658772226725     0.460331218560
C      3.324042217301     3.224017256793     0.513447585867
H      1.648087158056     2.457092535181    -0.635137895241
H      2.864661972584     2.532603297681    -2.812412590474
H      5.247169753797     3.269538326006    -2.893780212988
H      6.394827770896     4.004967091661    -0.799459538245
H      5.157740910792     3.989887002456     1.370501459484
H      2.784338266047     3.230818437722     1.456921457622
C     -2.387834864549     3.206055465592    -0.918257617851
H     -2.590177149579     3.693881874102     0.030419112663
H     -3.205969964787     2.653630621553    -1.366248198437
C     -1.221660101801     3.487384262322    -1.626799300180
H     -1.069931283319     3.070391937020    -2.613724558616
C     -0.273653996680     4.559834216526    -1.270196776487
O     -0.584165105958     5.397425360934    -0.382548742772
O      0.795137560779     4.803358706485    -2.150079686267
C      1.674192904502     5.875497082308    -1.778432897554
H      2.502456415045     5.946263737688    -2.515107143044
H      1.130779767751     6.847151591484    -1.763358460553
H      2.124271967248     5.689838690788    -0.776045831437
Pd    -1.027189720944     1.527110726141    -0.332936259162
C      0.297204480452     2.030320507345     2.135304227440
O     -0.530278634118     2.627776998967     1.230330603387
O      0.879238414777     2.690455160336     3.017275459777
C      0.437372183628     0.500534022299     1.973744658792
H      0.136243272344     0.036259776081     2.922748753011
C      1.864334904912     0.078264674954     1.682686459144
H      1.944231945198    -1.026948532686     1.740731336403
H      2.146714532391     0.395839622707     0.661013471733
H      2.560714458357     0.526373816121     2.421834144559
N     -0.428494992479     0.015785796520     0.873904704131
C     -0.917612150441    -1.239644044743     1.027966827325
O     -0.610649424831    -2.026186870486     1.966982421651
C     -1.904679728587    -1.690761054037     0.031947932903
H     -2.306692203263    -2.666851533881     0.357853176707
H     -2.709696776632    -0.942046507191    -0.006686404477
H     -1.383498198131    -1.808875480406    -0.930092383104
N     -1.289302096391     0.480590516793    -2.145898371123
C     -2.479232895802     0.070057439223    -2.686689863534
C     -2.488476136634    -0.664859642754    -3.855319914926
C     -1.308891900599    -0.984183004254    -4.493081326657
C     -0.130730624461    -0.548242753092    -3.940433344786
C     -0.179419629144     0.199758107340    -2.739758626004
H     -3.411678459680     0.308325219278    -2.189004756884
H     -3.429330148240    -0.991574249174    -4.269558434560
H     -1.313904126271    -1.561011645462    -5.414751671376
H      0.808446374667    -0.757652510774    -4.410002420129
O      0.957432546997     0.666695290926    -2.208924550196
H      1.803601904024     0.356466249147    -2.578602109195

