# STO-3G

title

0 1
C     -2.093303151616    -1.464733845692    -1.517167853807
C     -3.382835794839    -1.208313539161    -1.005334231980
C     -4.160959820758    -2.257124211065    -0.473983825599
C     -3.652798366832    -3.572144299595    -0.456695724307
C     -2.368895851560    -3.834838503659    -0.976415115944
C     -1.593343869226    -2.783674057613    -1.505272621698
H     -1.488245057817    -0.663858047285    -1.936339057457
H     -3.787601379705    -0.197571745597    -1.030676030782
H     -5.158427181538    -2.053163368822    -0.088197989779
H     -4.255854157037    -4.383531526493    -0.054417508214
H     -1.977225113895    -4.849605883430    -0.971484098325
H     -0.601404627607    -2.986042378231    -1.901907240448
C     -1.527962443687     1.878788262431    -0.445934375255
H     -2.348943712480     1.938978723457     0.262479143620
H     -1.679581180329     1.362057795030    -1.385352261882
C     -0.366989615772     2.621591099262    -0.294192300614
H      0.357818115964     2.591838234930    -1.089287082516
C     -0.127309546413     3.652688448159     0.728852709980
O     -1.104439324692     4.235492348841     1.277451817862
O      1.186197934852     4.128049606997     0.893529978925
C      1.357904413242     5.173176063901     1.860509332785
H      2.431237418635     5.456991785208     1.909102080831
H      0.773025337896     6.076813337238     1.574155997295
H      1.041627306497     4.831087985979     2.871912348394
Pd     0.032350321308     0.387181266130     0.401807155234
C      2.414626131810    -1.187654362430     0.629663350004
O      1.135197044934    -1.167780026479     1.077611707349
O      3.250834147213    -2.039110389476     0.984926151178
C      2.744105826266    -0.035207494833    -0.374675571510
H      3.479415056954    -0.434128215733    -1.085400823730
C      3.352774212996     1.159153571249     0.328216011392
H      3.587091806117     1.949282140136    -0.414386183020
H      2.630107437370     1.570069088717     1.063683675111
H      4.284554244963     0.862088983433     0.853330773613
N      1.484067168010     0.408920269241    -0.991595869448
C      1.179073024144     0.524164152375    -2.294122397825
O      0.015197871776     0.808812672274    -2.725398098382
C      2.260333835183     0.339751551407    -3.291196439057
H      3.070357451071     1.052974799801    -3.064143026451
H      2.602433306914    -0.707085471492    -3.243960205886
H      1.852089073958     0.547031418599    -4.297802836014
N     -1.327585707414    -0.115988497902     1.905320657610
C     -1.685245836280    -1.439520914250     1.937408580755
C     -2.596549091218    -1.880691426822     2.879387440136
C     -3.125894390293    -1.008081667257     3.804251537274
C     -2.723014423514     0.304177218357     3.767927257434
C     -1.792071049051     0.698993512523     2.775855705430
H     -1.270853392897    -2.134044840013     1.218658233679
H     -2.882033107802    -2.919691595079     2.883534258210
H     -3.832736272047    -1.355425398905     4.553164272026
H     -3.073452484707     1.009893211254     4.491455806731
O     -1.341277948980     1.970230053173     2.772566889750
H     -1.908294242284     2.630945730273     3.212657874661

