# STO-3G

title

0 1
C     -1.785029632706    -1.740781586571    -1.605482193218
C     -3.117220032790    -1.561390399167    -2.033353430592
C     -4.131483277704    -2.429252712654    -1.580201045386
C     -3.813498372283    -3.484875615980    -0.700843342862
C     -2.480803109629    -3.671515990046    -0.279296715533
C     -1.466549576734    -2.801651676928    -0.730210848740
H     -1.012693942746    -1.067254861395    -1.967166468916
H     -3.355751764358    -0.757715282366    -2.727245282375
H     -5.156719004474    -2.293208555264    -1.919200380950
H     -4.593378672731    -4.162895401028    -0.359248835620
H     -2.230153384208    -4.492277893682     0.389941778164
H     -0.442339164760    -2.936816372455    -0.392099089826
C     -1.599525245937     1.716253141975    -0.756365848302
H     -2.516688540460     1.629333629428    -0.180916881425
H     -1.558020369598     1.319384776469    -1.765041008920
C     -0.538116698839     2.511303282754    -0.322821660669
H      0.283171936097     2.681439076851    -1.001597076051
C     -0.541840880814     3.356565219345     0.883987821953
O     -1.573276899606     3.426391065060     1.606647386077
O      0.592280993689     4.144762115413     1.151494660030
C      0.512479013987     4.980299332874     2.314304360928
H      1.460649713129     5.548924385984     2.425165850378
H     -0.322237939616     5.711510089552     2.218304355404
H      0.362343851444     4.366682203573     3.230934661946
Pd    -0.062887404501     0.344983067489     0.207715430087
C      2.339712200260    -1.168594445525     0.554789612759
O      1.049767143781    -1.181416284481     0.959740121549
O      3.206750073397    -1.960582970295     0.974826147193
C      2.659447593459    -0.048740184888    -0.487604931481
H      3.426940161716    -0.454576254249    -1.159254792698
C      3.212279157123     1.188885569217     0.188687436187
H      3.444099490536     1.960342095178    -0.573716114008
H      2.456230166545     1.599764682042     0.891066575294
H      4.137604990139     0.939078216582     0.748663373510
N      1.407125044974     0.338186970891    -1.163359732697
C      1.187580306555     0.524825778839    -2.475145413837
O      0.055122192339     0.823653892605    -2.971762691770
C      2.330972224509     0.381701016713    -3.408634544486
H      3.121051211045     1.089585306356    -3.108307418275
H      2.675240462913    -0.665180040934    -3.377127078152
H      1.985046205308     0.622256194746    -4.431105841944
N     -1.331001517389     0.137206078456     1.841858901519
C     -2.483448107322    -0.600654022252     1.795581816422
C     -3.152593961099    -0.906593680157     2.965233645752
C     -2.669232106740    -0.474450050975     4.181041068180
C     -1.514720462730     0.268383427850     4.199074879785
C     -0.872248232877     0.551454091398     2.967254494964
H     -2.882151896046    -0.925354060663     0.845139346563
H     -4.058664661114    -1.487656671940     2.916453249025
H     -3.194998671263    -0.711186072156     5.102260571343
H     -1.114581259003     0.639959395051     5.118138992831
O      0.260519900541     1.287625077851     2.968257870963
H      0.692731102377     1.386093528536     3.834626237204

