# STO-3G

title

0 1
C      1.429061807440     0.170049612461    -2.363607048956
C      1.598772605760     1.483814803452    -2.846412689016
C      2.001599648197     1.697597326815    -4.179706217296
C      2.236736458182     0.598007333296    -5.027692621841
C      2.073393088136    -0.715687147015    -4.542220906137
C      1.669610873897    -0.932575868888    -3.210964540586
H      1.120292771591    -0.013482696314    -1.339049586242
H      1.429287170760     2.340296025500    -2.194132813917
H      2.131461042754     2.711942350399    -4.549789597390
H      2.548621136288     0.763422330117    -6.056449682248
H      2.261124870172    -1.564452741094    -5.195339000157
H      1.545342837773    -1.943266647901    -2.831430012453
C      0.573940653248    -0.037731668963     2.253816486253
H      0.032291407776     0.317420230211     3.125704158017
H      0.805805669901    -1.096999812072     2.208479165481
C      1.116644062152     0.824954584676     1.313677690568
H      1.754507628380     0.431631065534     0.535966402701
C      1.074817904142     2.293512957730     1.411145916109
O      1.513452005017     2.971690931424     0.446188805458
O      0.474141683183     2.904875279238     2.526295242292
C      0.367609626060     4.334324124554     2.475049035713
H     -0.130870580943     4.699367925482     3.398531346105
H      1.374740662893     4.805104752786     2.411188796555
H     -0.246936280270     4.653919060067     1.602948991098
Pd    -0.928130609356    -0.127952114467     0.539799126297
C     -0.533420528994    -2.565304375596    -0.905850301877
O      0.028528972860    -1.820918558194     0.083366588483
O      0.031865581655    -3.558898773641    -1.397627883435
C     -1.938158856272    -2.072471034299    -1.378521475917
H     -2.567811299015    -2.972285109726    -1.398624673456
C     -1.889974231814    -1.495002082680    -2.778028904639
H     -2.911683028680    -1.224416044983    -3.111025253163
H     -1.265308691859    -0.582025995704    -2.794683315091
H     -1.465732386438    -2.237701472368    -3.486242057264
N     -2.429331580604    -1.035051550292    -0.453580156933
C     -3.663289813451    -0.941306860476     0.095281748154
O     -3.936862957609    -0.240036335739     1.112714159906
C     -4.777328018878    -1.682426260931    -0.547017086818
H     -5.719406068635    -1.390723632363    -0.047768016341
H     -4.820747326429    -1.393597657445    -1.609194724310
H     -4.618783342710    -2.764996395199    -0.414082952080
N     -1.886463724388     1.695777546440     0.788893993283
C     -2.555112633121     2.003260276213     1.945361873057
C     -3.224449271977     3.208485437974     2.053727165726
C     -3.255652192360     4.088440559730     0.993968874899
C     -2.589624180731     3.746465058695    -0.154427042981
C     -1.914555404394     2.512252325034    -0.214219468542
H     -2.534775756213     1.314606922694     2.781998126811
H     -3.746008002341     3.440609787776     2.967015246342
H     -3.794368530027     5.029231866936     1.067201190175
H     -2.575906156632     4.380301747906    -1.018200143398
O     -1.311194917539     2.273217492099    -1.379412245273
H     -0.847212998407     1.402552559958    -1.404480683370

