# STO-3G

title

0 1
C     -0.700874729874    -0.244727110958     2.312196510014
C      0.547759324345    -0.624191210779     2.847110130109
C      0.718985394104    -0.683012817373     4.244228398507
C     -0.349533764886    -0.360744873345     5.104832101060
C     -1.592679145608     0.029336888979     4.568449027154
C     -1.766563140466     0.089528517077     3.171529926878
H     -0.832503739522    -0.211609015795     1.231996218676
H      1.370925518065    -0.856114578445     2.177179148088
H      1.684078707663    -0.967263309266     4.657745135535
H     -0.212214042178    -0.403307527758     6.183373316384
H     -2.415075734474     0.290365963429     5.231166544457
H     -2.726518412156     0.400738385308     2.762058816502
C     -2.166301506134    -1.017796922924    -2.429157098344
H     -2.266232522011    -1.996535809923    -2.888843487864
H     -1.903621173979    -0.206328066130    -3.093244971506
C     -2.570103987622    -0.771648324352    -1.121563808125
H     -2.586630000382     0.242894898857    -0.750345604185
C     -3.245112633727    -1.765715239693    -0.266798146661
O     -3.525704807609    -2.906545353853    -0.720073686470
O     -3.599427062120    -1.391431253581     1.038904015152
C     -4.169037995244    -2.425694895549     1.853892700212
H     -4.390499335402    -2.019457341264     2.864433849915
H     -5.120161135683    -2.800500902390     1.411677020696
H     -3.457222573416    -3.274338841944     1.971494812492
Pd    -0.269473804928    -1.021526609017    -1.112176887132
C      2.052681970748     0.483208635674    -0.332171373522
O      1.541537129831    -0.776344946562    -0.236389059424
O      3.053191787090     0.858497952274     0.302143786198
C      1.265216615947     1.432496182773    -1.314258401561
H      2.012928192687     2.014781714476    -1.869269435332
C      0.364272275439     2.394745649641    -0.577487691904
H     -0.154795662328     3.048801127212    -1.308070878874
H     -0.395277870379     1.836629910508     0.003028978969
H      0.962803166178     3.023799589196     0.114605232652
N      0.417189226511     0.575577136778    -2.152840485925
C      0.711054422903     0.144553766454    -3.387356382024
O      0.321089712265    -0.991268173729    -3.852975342473
C      1.457823033023     1.033797605840    -4.300825638627
H      0.962921855925     2.020196465901    -4.307111861609
H      2.501777328729     1.101392404932    -3.953428993209
H      1.440486106623     0.597951233601    -5.317371573822
N     -0.403277124178    -3.018463832985    -0.618116659982
C     -0.492336264742    -3.573121794197     0.629574041505
C     -0.443343581312    -4.943536739459     0.779016629568
C     -0.296044755180    -5.761862516386    -0.319654945361
C     -0.181956000451    -5.181525662329    -1.555821955953
C     -0.227811965874    -3.775984942681    -1.672522791681
H     -0.625412604268    -2.939500905919     1.496531259583
H     -0.523933702266    -5.372142981090     1.763895983748
H     -0.260011272901    -6.842016756222    -0.207338061194
H     -0.048174405169    -5.761899235534    -2.446219908333
O     -0.062783376095    -3.338624640948    -2.904017493487
H      0.066162569462    -2.332360632268    -3.176188092905

