# STO-3G

title

0 1
C     -0.569114758622     2.610589496508    -1.197481392617
C     -1.819475716571     3.248061725548    -1.065005623001
C     -2.481591288976     3.735242724001    -2.208517400565
C     -1.897628686080     3.582069160030    -3.482565274237
C     -0.649031578505     2.942782669910    -3.613291483586
C      0.016785821067     2.457428233076    -2.469796070130
H     -0.069534799025     2.241857344626    -0.304024288689
H     -2.266891931060     3.351571052028    -0.079727100126
H     -3.444415888492     4.230941616917    -2.107219413793
H     -2.410487773862     3.958125140840    -4.365108343841
H     -0.199559346026     2.823691378402    -4.596655706362
H      0.978328335101     1.960365729951    -2.580133794898
C      0.257959781807     0.471086282784     2.912951851558
H      1.039237937339    -0.187811074267     3.286608828401
H     -0.764645035240     0.220415868928     3.168601511983
C      0.530744386993     1.721267015824     2.353738971953
H     -0.315511669463     2.355885531024     2.141313797406
C      1.857825672728     2.355254627520     2.375891222554
O      2.021457835108     3.439627396870     1.757480142880
O      2.936155445573     1.698406645508     2.996170923953
C      4.187822052090     2.398618680320     2.990628472700
H      4.955481347174     1.781037707341     3.504606608956
H      4.534927791181     2.585165364132     1.949861937683
H      4.100378153934     3.368214957722     3.531187583502
Pd     0.091445970014     0.020417335393     0.723026830216
C     -1.454880184408    -2.240955335536    -0.302104834765
O     -0.160814495946    -1.829477836125    -0.175346693727
O     -1.781912292551    -3.419285165931    -0.497976300345
C     -2.445516946561    -1.056946005660    -0.211683962805
H     -3.411180808233    -1.490928558524     0.075781432252
C     -2.591124079340    -0.381240805400    -1.563166714621
H     -3.295010576538     0.472156634896    -1.499348525746
H     -1.606954981377     0.008102054601    -1.895769137806
H     -2.968986020290    -1.104295615776    -2.316030410533
N     -1.943942891094    -0.048494298834     0.756864639339
C     -2.717702193662     0.811605035579     1.454175444022
O     -2.272444966444     1.794116581207     2.120632266026
C     -4.184911541967     0.581799658726     1.495634579560
H     -4.594139493996     0.661148666992     0.476425426193
H     -4.369424905068    -0.408874417513     1.943080313028
H     -4.647113599080     1.359264177130     2.132473594670
N      2.142145897612    -0.177486807790     0.354201055926
C      2.911327259712     0.853314193443    -0.119092695804
C      4.268953982260     0.681803992522    -0.296824672318
C      4.867355991430    -0.522958044149    -0.000426691672
C      4.074042151314    -1.554359163945     0.425911862758
C      2.683825872196    -1.353405772591     0.555472539846
H      2.456494285144     1.810208716090    -0.343827201714
H      4.863408114034     1.504622754552    -0.659099980972
H      5.937835014928    -0.659888651905    -0.128255099859
H      4.466540544973    -2.531204101287     0.626812493826
O      1.991893993756    -2.429312102110     0.854598811425
H      1.000939915904    -2.377907937560     0.504579605336

