# STO-3G

title

0 1
C     -2.878210244986    -2.511807982001     1.241555908661
C     -3.788902804564    -2.041064312870     2.208508067778
C     -5.158560034905    -1.927750116325     1.894765181652
C     -5.619023508197    -2.291664755495     0.613632081918
C     -4.709948514249    -2.772115713212    -0.351028541274
C     -3.341026040651    -2.883165723803    -0.037048512820
H     -1.823343630118    -2.607086508744     1.480046250465
H     -3.435632344647    -1.770289953073     3.202040361290
H     -5.860351324260    -1.564870531105     2.642652647717
H     -6.676337949141    -2.207840559249     0.371721688372
H     -5.066808052906    -3.061894856271    -1.337081045367
H     -2.627082497970    -3.255329360275    -0.766876405686
C     -0.992562732945     0.481888621977     1.024541520161
H     -0.780745249936     1.459405005306     1.445174395451
H     -1.130818854252    -0.331358492350     1.727364053556
C     -1.327963097249     0.292650985163    -0.306232075356
H     -1.672604706005    -0.679502677374    -0.617886279096
C     -1.432687644206     1.365707121438    -1.305556374986
O     -0.912665076346     2.489033070978    -1.064811017217
O     -2.054220003916     1.096405418566    -2.537568037151
C     -2.207186126465     2.217372294807    -3.419883690504
H     -2.708272432684     1.884500999349    -4.354208692895
H     -2.837726181148     3.005862107128    -2.949856674282
H     -1.218022929023     2.650507161888    -3.690833653775
Pd     1.022589268648    -0.015726504324     0.006804953635
C      3.192529499388    -0.139971451722    -1.872908908159
O      2.960869669750    -0.088377042891    -0.533835181039
O      4.325466011841    -0.039487534253    -2.373610795661
C      1.897108840829    -0.343225905937    -2.745695044514
H      2.154816390474    -1.043834634276    -3.551048342999
C      1.431325270742     0.950665104623    -3.368346264542
H      0.507080117372     0.765903072794    -3.953174952999
H      1.217020950241     1.695372133073    -2.574754395211
H      2.215693905126     1.353441731067    -4.042668785556
N      0.836989585624    -0.820814852885    -1.848777448935
C      0.388697527290    -2.069004097943    -1.717021392922
O     -0.129742722423    -2.521202756067    -0.622637173071
C      0.400701827253    -2.967752252398    -2.888461240773
H     -0.092073952925    -2.445723812568    -3.727089512623
H      1.445858320907    -3.226059031985    -3.124700206814
H     -0.157488094116    -3.889149138281    -2.638727174175
N      1.576202877891    -0.236105125831     1.997009831617
C      2.398757762223     0.596633248514     2.703151029071
C      2.817134058136     0.232841260261     3.967255301056
C      2.429315608413    -0.972206193911     4.513237448724
C      1.626833019409    -1.798602864327     3.768824589030
C      1.230764838577    -1.400854953354     2.474608009898
H      2.698010664471     1.548304380483     2.279324349477
H      3.458882805626     0.896006173522     4.523647221938
H      2.760049377238    -1.264573202934     5.506292105802
H      1.310016532488    -2.757586895147     4.127134847297
O      0.492712452117    -2.290853253078     1.838315982053
H      0.284760208231    -2.260236203820     0.804121730670

