# STO-3G

title

0 1
C     -2.848011150334     0.697176087542     1.862350620219
C     -2.482834527723     0.274897586964     3.159393794895
C     -3.467071619569    -0.199071995177     4.052368511330
C     -4.815937789791    -0.245164945268     3.653043112136
C     -5.184029045999     0.186056566824     2.361215012252
C     -4.203245492686     0.657183055221     1.468885913999
H     -2.101585744779     1.075580197171     1.169893723152
H     -1.445593883215     0.324794122229     3.484778289073
H     -3.181154616781    -0.527442573248     5.048604873660
H     -5.574693809260    -0.610196129438     4.341073927987
H     -6.226409570553     0.155228395037     2.053418783128
H     -4.484273322229     0.998335576028     0.475815513758
C     -0.981066763377    -0.655145931414    -2.086350972687
H     -0.407457021654    -1.497941830700    -2.463085920326
H     -0.822651470720     0.317467879641    -2.536303904531
C     -2.085918140773    -0.823623181763    -1.260576182223
H     -2.683361753713     0.049535444671    -1.059260185259
C     -2.670774611183    -2.125669162786    -0.894064035449
O     -2.114699977394    -3.195218362040    -1.261354948925
O     -3.831458878276    -2.136466513282    -0.104928903876
C     -4.267840199890    -3.422779191469     0.354089813356
H     -5.179807485033    -3.299039816369     0.976618952554
H     -4.515380155554    -4.087540725960    -0.504094114111
H     -3.484562498141    -3.903806348376     0.983397524255
Pd    -0.085050126069    -0.134514874630    -0.070112940554
C      1.971090424211     1.574558805886     0.965264540341
O      1.572048083802     0.276458484714     0.981411329490
O      3.122011345130     1.929815597363     1.274116570208
C      0.844945894556     2.572066268047     0.589798217697
H      1.332622768455     3.416300119848     0.084291952964
C      0.172380387418     3.081120165270     1.854081802731
H     -0.670233363685     3.757687153153     1.614702499424
H     -0.223370662386     2.225077077514     2.435364228933
H      0.906389673196     3.630716733608     2.480643912679
N     -0.178350358035     1.898722467782    -0.250299003280
C     -1.052551536387     2.538903431034    -1.059705154914
O     -2.063053923355     1.986756454427    -1.593378530588
C     -0.796212334834     3.958347167243    -1.419384992082
H     -1.579029976082     4.284581292143    -2.129025296250
H     -0.849721597557     4.583757048975    -0.516424754261
H      0.189248332336     4.026858686882    -1.911454508132
N      0.362837819838    -2.102203909808     0.386699111855
C      1.527840391495    -2.573958632414    -0.158632303287
C      1.996502449456    -3.824958645800     0.191250835065
C      1.305268848393    -4.600310426269     1.096998115867
C      0.158493782606    -4.089647674267     1.647656410582
C     -0.276723347763    -2.806359343982     1.262192034321
H      2.070223172149    -1.970968059632    -0.877581868192
H      2.908519725451    -4.192201953051    -0.249157554850
H      1.666693085449    -5.586331453832     1.376055054472
H     -0.417171309370    -4.632179529888     2.369419541618
O     -1.375323673680    -2.400750287096     1.894653555358
H     -1.648706947783    -1.461175561612     1.751887689786

