# STO-3G

title

0 1
C     -3.067444508031    -2.753248703765    -0.157590683215
C     -4.098602611221    -2.880040914242     0.794512125013
C     -5.428936080154    -2.575875703933     0.443269018384
C     -5.732295123595    -2.147860278224    -0.864678206627
C     -4.704521334497    -2.027672781676    -1.821289240974
C     -3.374695266351    -2.330383592989    -1.467407604260
H     -2.044259232966    -2.995218291063     0.116498375386
H     -3.866449080506    -3.218320317011     1.802243295207
H     -6.222444772222    -2.675900328626     1.180554134459
H     -6.759503134207    -1.915759330078    -1.136998532913
H     -4.938526095962    -1.704598554234    -2.833276258441
H     -2.582729631121    -2.242101648475    -2.207794416693
C     -0.967704047090    -0.412735216115     1.359913983563
H     -0.648434172044     0.082025916337     2.270802763976
H     -1.215440836780    -1.462950255087     1.441289149326
C     -1.274519016864     0.289633926546     0.198300252011
H     -1.740170328609    -0.242343188170    -0.615976931858
C     -1.210314247832     1.752962063070     0.051973684242
O     -0.594805819679     2.436513628199     0.912191080034
O     -1.615333451570     2.316279936812    -1.169879961909
C     -1.434842067318     3.733951526303    -1.297652516124
H     -1.799926788563     4.064137899474    -2.294201536616
H     -2.013754176061     4.279170756307    -0.517742664484
H     -0.357616629541     4.005755180761    -1.215920200062
Pd     0.915670298311    -0.373768804422     0.021325295477
C      2.443665341559    -0.671650298716    -2.394831609772
O      2.609471579918    -0.317069876433    -1.093518807673
O      3.323572876435    -0.542723921852    -3.263180042373
C      1.017546280735    -1.263183680290    -2.724044628411
H      1.159309230625    -2.092425349495    -3.430025277436
C      0.116437905401    -0.233552549020    -3.364313083978
H     -0.879099862113    -0.680801168776    -3.562460938999
H     -0.010293293061     0.633410531060    -2.684737816699
H      0.556659060019     0.115351176489    -4.321815415521
N      0.407231411848    -1.653586991986    -1.448297061042
C      0.351880456928    -2.875703671406    -0.912407571169
O      0.296215993503    -3.086620742149     0.359506088999
C      0.278718933081    -4.050272101965    -1.804876399905
H     -0.546195382741    -3.893605664442    -2.520500878440
H      1.248159014940    -4.163639900783    -2.317482955547
H      0.079357784007    -4.951132591970    -1.194863316984
N      1.885128045209     0.161187539330     1.772166124021
C      2.511536744981     1.348464157569     2.029288708843
C      3.226784431187     1.504295014686     3.199900286354
C      3.319850581628     0.470061698914     4.106445143430
C      2.689970507156    -0.713039154749     3.815687874847
C      1.975851964258    -0.840516067457     2.605662552476
H      2.432687066827     2.165676246704     1.321572502836
H      3.713799802544     2.444108321098     3.400173797274
H      3.882462819302     0.588615496351     5.028501863496
H      2.733660607613    -1.557475633116     4.473605987149
O      1.427161953662    -2.027506171803     2.429394657598
H      0.969940506852    -2.336807316504     1.543612777447

