# STO-3G

title

0 1
C     -0.813054278130    -1.117339175806    -1.774192369511
C     -1.187820378235    -0.985051972892    -3.126905683202
C     -1.505591884379    -2.131268692027    -3.882879969848
C     -1.450558555612    -3.407080442170    -3.286969089540
C     -1.078182458393    -3.536189189754    -1.933451708391
C     -0.758400485220    -2.392727411206    -1.174579571857
H     -0.567097466115    -0.235616623993    -1.186475373583
H     -1.231093374183     0.001863982754    -3.580756463300
H     -1.797871889738    -2.028353821351    -4.925587961834
H     -1.698269950383    -4.291395642076    -3.870145137518
H     -1.036916105669    -4.520380760792    -1.472237040263
H     -0.465662047243    -2.479374003134    -0.131686173691
C      3.122687259385     0.372864377559     0.280352149953
H      4.029714466663     0.927460246138     0.061638846761
H      2.811141452129     0.328027046675     1.317989748525
C      2.524632152790    -0.503262391753    -0.624471552072
H      1.716731821858    -1.118591599411    -0.258234381311
C      3.040663561256    -0.833535970681    -1.964014945839
O      4.182892668558    -0.426677887705    -2.312889427916
O      2.256936899356    -1.626720347994    -2.813911222889
C      2.729880497422    -1.769005399584    -4.158826165426
H      2.014206536686    -2.399837613720    -4.729220379393
H      2.794225150074    -0.776483145885    -4.660135575299
H      3.726547306418    -2.264649932728    -4.178139083634
Pd     1.292330128401     1.488310770559    -0.466352262580
C     -0.971463557148     3.079438883305     0.449953176919
O     -0.326602109667     2.715531563992    -0.696355529855
O     -1.977912115307     3.797611594145     0.473409074180
C     -0.268315503202     2.489130946133     1.705787804990
H     -1.046294469704     2.396009249713     2.472900164256
C      0.805476389662     3.417291253389     2.231626737040
H      1.271800062739     2.971969953453     3.134642371037
H      1.588497161675     3.564081805138     1.460146418175
H      0.364682348392     4.400960559513     2.498675099632
N      0.383695654645     1.216246784148     1.335356691252
C      0.183294231583     0.008762946163     1.902839578166
O      0.689037641711    -1.071414161628     1.472544545326
C     -0.645867852499    -0.073394878269     3.130401285768
H     -0.630933489845    -1.118343356262     3.491712274408
H     -0.205929914407     0.586258416070     3.896406165325
H     -1.684030311719     0.205495773708     2.880229438103
N      1.934429780915     2.091018117486    -2.386212697237
C      3.256512596871     2.275994519998    -2.702349745198
C      3.630252893687     2.559161455045    -4.000036387754
C      2.686436426205     2.664858905011    -4.994867230904
C      1.368928532627     2.527706690492    -4.653044610036
C      1.019885858777     2.275201745901    -3.309384801959
H      4.015632974422     2.185504909646    -1.936639644606
H      4.676300597046     2.670885213575    -4.234741830902
H      2.978260161591     2.873606138860    -6.020693395804
H      0.580274449292     2.641350985529    -5.369902927406
O     -0.272909880054     2.255979330610    -3.083336479424
H     -0.530354535608     2.448010628283    -2.084779743310

