# STO-3G

title

0 1
C     -0.133158606832    -1.178429442391    -3.660862522433
C      0.463712337210    -2.319472645632    -4.232291529797
C      0.813699469076    -2.322144613231    -5.597355888998
C      0.563161172217    -1.184201921660    -6.390111472020
C     -0.039290719895    -0.045407178087    -5.818526036200
C     -0.389787903161    -0.041261121309    -4.454053479987
H     -0.411723692876    -1.173828181704    -2.611859610019
H      0.652948445686    -3.201314982356    -3.623390267358
H      1.274971754316    -3.202244333443    -6.039918086695
H      0.832737368271    -1.185980864661    -7.444001571601
H     -0.235862940097     0.831587545568    -6.431157788899
H     -0.861052487391     0.828487736383    -4.002709947178
C      1.404994904617     0.409159311576    -0.925574320128
H      2.067072881233     1.198798827303    -0.587325416036
H      0.841690018532     0.603335798949    -1.829364863294
C      1.443670115664    -0.873079107499    -0.382879950108
H      0.877321446717    -1.655067992552    -0.864595821480
C      2.359710125196    -1.322406204233     0.678604475453
O      3.016787009438    -0.474397497043     1.337467194077
O      2.297055361815    -2.667271537482     1.080420096122
C      3.130908537534    -3.029936765104     2.190454680186
H      3.005008367909    -4.112533227027     2.408863343129
H      4.204348794637    -2.845284956006     1.957299959986
H      2.847435412108    -2.457621137485     3.103221485078
Pd    -0.197461276239     0.263520698786     0.729032135725
C     -2.492000235499    -0.854757576560     2.047360570722
O     -1.609029933851     0.170491896190     2.183274314783
O     -3.320698694993    -1.170897789925     2.917828563254
C     -2.370600649285    -1.631698969755     0.678244006764
H     -3.387553887798    -1.877316952912     0.344955481605
C     -1.589176338437    -2.915795282858     0.828412345142
H     -1.503442213732    -3.416224289059    -0.158160018093
H     -0.570965539119    -2.697692950813     1.210043353380
H     -2.106311963122    -3.594966897617     1.538155752646
N     -1.625528539911    -0.766571830576    -0.244389684101
C     -2.133768615741     0.041968775187    -1.181953520936
O     -1.556500565137     1.129130936966    -1.564459689128
C     -3.366450133653    -0.362695501714    -1.886843108259
H     -3.538005865809     0.335068737002    -2.726992131844
H     -3.220149381184    -1.384855214420    -2.276413786318
H     -4.216827624172    -0.309364691223    -1.186020254440
N      0.694628383740     1.973318435516     1.485235440951
C      1.353324705437     2.099551485188     2.676334763469
C      1.783947803422     3.343880702614     3.091527178491
C      1.550624786788     4.459855913870     2.316965063085
C      0.878660685392     4.304165989816     1.131701479589
C      0.443818455788     3.019443461661     0.743381037165
H      1.545315422846     1.222432466616     3.283461113170
H      2.307372218076     3.436194369210     4.028510755866
H      1.888470819987     5.440804196147     2.640058708657
H      0.657379009778     5.133122762275     0.490067213236
O     -0.203600489881     2.997563470506    -0.405662719945
H     -0.697239034508     2.160431568005    -0.786946737711

