# STO-3G

title

0 1
C      3.045400555993     2.042641175589    -2.448330223421
C      2.322099785455     3.251061224483    -2.509742953959
C      2.419285484210     4.074370239164    -3.648593790651
C      3.240482257742     3.691275187471    -4.727714907495
C      3.966973887994     2.485649434466    -4.666058905565
C      3.869824216321     1.663693038079    -3.525997506635
H      2.966109538921     1.393422727639    -1.582367377426
H      1.686843800857     3.559551360160    -1.680931591644
H      1.861725225260     5.006880530201    -3.692819442773
H      3.315815475809     4.327599228775    -5.606197714149
H      4.603765763375     2.189644323973    -5.496203155540
H      4.427775840877     0.730829737289    -3.476349740956
C      1.471993423795     1.158756897188     0.524897376421
H      1.513655696810     2.015046249779    -0.136059086051
H      2.180205933632     0.358062524857     0.337439008583
C      0.730177117242     1.164109202387     1.693067429470
H      0.835125429100     0.340407508395     2.379526643161
C     -0.086475330904     2.293741091069     2.160664241420
O     -0.400230845678     3.207308965868     1.350311021319
O     -0.557709637839     2.295876583278     3.484989305520
C     -1.298088007758     3.457989998043     3.885067275222
H     -1.614262484287     3.346262941696     4.944616560250
H     -0.669456181671     4.373830390056     3.805204176354
H     -2.211991693114     3.582995708234     3.261491808776
Pd    -0.543004563396     0.215417706028    -0.095666088678
C     -3.330294076065    -0.469334264952    -0.237946758486
O     -2.233746924368    -0.340748104893    -1.032749688610
O     -4.471550263090    -0.681567285653    -0.681661490950
C     -3.034782269250    -0.320638461903     1.302000552057
H     -3.647112575425    -1.067591835086     1.824559247437
C     -3.411726438444     1.049710941364     1.812107769003
H     -3.160879544493     1.124694452697     2.890240620446
H     -2.850227814587     1.826127323663     1.253358375205
H     -4.500286953520     1.220412306637     1.677437945907
N     -1.589132347024    -0.489287657576     1.493249045194
C     -0.946010930811    -1.564416130255     1.955318497645
O      0.277375141830    -1.839600192415     1.645359611321
C     -1.620065189446    -2.442018074544     2.933109394440
H     -0.884816577962    -3.173041052042     3.316375368860
H     -1.989704746114    -1.811908020141     3.760230801436
H     -2.441848140094    -2.978021295571     2.428573172380
N      0.517488598576    -0.185776019668    -1.838023333213
C      0.267883253172     0.365136666348    -3.064786309266
C      0.895935130331    -0.144206335564    -4.182877393422
C      1.770333986716    -1.202962220770    -4.073142124029
C      1.984593057545    -1.747596585942    -2.832514428023
C      1.304107025760    -1.219101832466    -1.715355685173
H     -0.400974287279     1.213555514623    -3.151056320744
H      0.712869767458     0.308989275533    -5.142915571515
H      2.274301186110    -1.599563216464    -4.950186049991
H      2.634489303710    -2.586349100079    -2.684674599619
O      1.561416144556    -1.849765310259    -0.583056732831
H      0.991348574055    -1.740156597641     0.287544183930

