# STO-3G

title

0 1
C      3.258460443372     1.333463849817     2.119710359637
C      4.584486282521     1.061172180015     1.726875250404
C      5.141317060834     1.723497435817     0.613908567250
C      4.372882141631     2.665686754542    -0.098548140327
C      3.051861871301     2.948058082045     0.303991872820
C      2.492394867662     2.281835662523     1.412212317254
H      2.827324648913     0.817491351153     2.970146196206
H      5.180966953125     0.341285244326     2.285924590413
H      6.165856112042     1.514962822401     0.312924244672
H      4.803086971346     3.182583410006    -0.953491583954
H      2.465943438122     3.685677171914    -0.239490064234
H      1.474100971423     2.496777508382     1.727410530547
C      0.784770741574    -0.619844050085     3.460151840621
H      1.741790030132    -1.114861606245     3.608522801441
H      0.721690823737     0.461259649338     3.524217135265
C     -0.410558401203    -1.321488659253     3.473230088443
H     -1.320307624382    -0.749094684113     3.436978852861
C     -0.577710657758    -2.741898299241     3.823443667292
O      0.327556322570    -3.337763957165     4.474139076052
O     -1.853173711572    -3.314146147908     3.670200883260
C     -1.981912041200    -4.681100526073     4.083825609033
H     -3.024448203836    -5.021787584029     3.905141453958
H     -1.297088603794    -5.335683113970     3.499107931737
H     -1.763509899221    -4.787776858416     5.170676667266
Pd     0.255117041331    -0.702423176538     1.221572018043
C     -1.046051084496    -0.170913007114    -1.272006176292
O      0.047433948643    -0.800071907740    -0.777054826926
O     -1.529022533231    -0.422585071391    -2.391167759391
C     -1.564526088623     0.968192845945    -0.358987480602
H     -2.641842440929     1.072196510422    -0.547840488374
C     -0.860670324018     2.261037046577    -0.744587943880
H     -1.186459596948     3.103941673837    -0.106439578126
H      0.234513259197     2.131321263285    -0.619668147491
H     -1.076448706703     2.511614908755    -1.804770983930
N     -1.242693586304     0.673899069100     1.061767951017
C     -1.781098742941     1.337243003877     2.110577085076
O     -1.275527893215     1.367141267262     3.275020651581
C     -3.104233387366     1.993329371579     1.933839643760
H     -3.020348118295     2.822482841390     1.216920037570
H     -3.821096016038     1.227619704769     1.592521179270
H     -3.434377245978     2.391841981036     2.911395947674
N      1.978778909190    -1.827469902681     0.848286901740
C      2.827817949511    -1.166618276677    -0.002716701544
C      4.029258873113    -1.746974570737    -0.364110056970
C      4.366180358737    -3.000302056432     0.095448119755
C      3.480920120035    -3.652249240587     0.917049869271
C      2.266786446348    -3.004923952972     1.258623350880
H      2.573529220693    -0.177338431211    -0.365257541242
H      4.694854976299    -1.209440331793    -1.019096845810
H      5.302256728425    -3.466724524891    -0.200122989190
H      3.675402576601    -4.647339839532     1.258331167064
O      1.361495002848    -3.680630451461     1.994670052837
H      1.726607374529    -4.381534922011     2.567894882737

