# STO-3G

title

0 1
C      1.414664274511    -0.097511756011     1.787389835217
C      1.806244712391    -1.355108563823     2.291099819328
C      1.670316973545    -1.633676738737     3.666107712915
C      1.146767191517    -0.656677871492     4.536619044750
C      0.760251108071     0.601813099546     4.032290163483
C      0.894997557835     0.881785485130     2.658070442062
H      1.520226142706     0.108594613690     0.726555093507
H      2.213032042062    -2.104915924122     1.618236936895
H      1.972367826980    -2.604071125506     4.053470094327
H      1.043815172048    -0.872240219728     5.598087408931
H      0.358446781170     1.358042316704     4.703120013712
H      0.592778209794     1.847354325921     2.260908179424
C     -1.297542646290     0.779524288153    -3.227156834534
H     -1.322623718563     0.069514125201    -4.048678536404
H     -2.085035730755     0.706296396700    -2.488690298984
C     -0.436382317498     1.866792893245    -3.206803636881
H     -0.551664109661     2.617749528300    -2.439663175429
C      0.520049027957     2.193887264099    -4.277160376951
O      0.802375956294     1.324492861624    -5.145816329366
O      1.175116644822     3.436269048196    -4.241536542464
C      2.202968061275     3.633511605465    -5.221737543333
H      2.643603109559     4.645448634849    -5.092348321691
H      3.017047523387     2.884360907343    -5.095476179786
H      1.787564414431     3.562624759686    -6.252495199834
Pd     0.497510729895     0.006751815054    -2.034319187733
C      0.854767730368    -2.591165462509    -0.853365112955
O      1.576522525278    -1.517057161614    -1.271353931255
O      1.379751693278    -3.658440463992    -0.491157995355
C     -0.703127279332    -2.371122460944    -0.859192876847
H     -1.098448226828    -2.825154693196     0.059001610747
C     -1.357606381610    -3.030777095007    -2.050354908263
H     -2.452191333018    -2.852715311878    -2.018602388531
H     -0.950610297545    -2.600011592619    -2.987961581500
H     -1.165014977349    -4.124105262302    -2.034501373235
N     -0.942273517897    -0.931709216653    -0.965701854631
C     -1.392398534941    -0.077853812432    -0.050935833620
O     -1.175217215412     1.196434742578    -0.116671357562
C     -2.205153292977    -0.580786482040     1.072318226593
H     -2.580851610687     0.282952901804     1.650352986125
H     -3.048276173009    -1.159826658189     0.660341478568
H     -1.561323568608    -1.198619276854     1.723842155976
N      2.170679085587     1.253745703341    -2.003142711927
C      3.368256002227     0.993273908651    -2.609089285404
C      4.457607746452     1.798443132755    -2.345016145133
C      4.353225618761     2.847734265340    -1.456914838515
C      3.147432274726     3.067156209510    -0.842290747489
C      2.055544519417     2.222153469539    -1.131033743284
H      3.450405238972     0.173369843291    -3.313255608376
H      5.397269086245     1.593210388603    -2.830355146921
H      5.209945077673     3.480406104598    -1.241232468770
H      3.007140930271     3.854631427499    -0.129605965839
O      0.959867966599     2.505410217794    -0.456582455624
H      0.096078728741     1.888878111502    -0.399726933531

