# STO-3G

title

0 1
C      2.618526116473     0.041819682493    -0.206522519139
C      2.974415062379     0.144215436649    -1.569170783920
C      3.284560402173    -1.015905133023    -2.301510970045
C      3.231616108924    -2.280827712941    -1.678428878308
C      2.873074551495    -2.383239564957    -0.320853036028
C      2.569701228107    -1.222124871009     0.418478349004
H      2.425458642094     0.968398265849     0.337482968397
H      2.992963799423     1.124278640853    -2.036779829193
H      3.564378086854    -0.937078394317    -3.349620406057
H      3.467697500294    -3.177784244268    -2.246959580710
H      2.826232160173    -3.358417005744     0.158402355785
H      2.289259858312    -1.315567849117     1.464889142898
C      0.483010980283     3.314675443086     1.304775551543
H      0.794134830405     3.768728797382     0.372542609312
H      1.203164665514     3.327121148694     2.114941561977
C     -0.854653837248     2.970803660992     1.570116233423
H     -1.131351096187     2.628537639364     2.558810781872
C     -2.005164446425     3.281836992715     0.701119481137
O     -1.853813659376     3.974427503072    -0.341603372140
O     -3.269027644414     2.806059155127     1.084116875055
C     -4.329417541506     3.000996329931     0.138824571454
H     -5.269002970453     2.571644203188     0.549432148369
H     -4.495061702603     4.084923782068    -0.054984619025
H     -4.105299790869     2.478579699046    -0.818524705043
Pd     0.137297376271     1.103418570585     0.808303371877
C     -2.129431772725    -0.239270154336    -0.486162142591
O     -1.348548823005    -0.450769499979     0.606944895000
O     -3.330789795776    -0.538400184066    -0.563776542407
C     -1.315096690091     0.391660204184    -1.646609802630
H     -2.041870800164     0.814987075983    -2.352302119832
C     -0.497197495422    -0.682909235943    -2.343523931253
H      0.082438893444    -0.257367180864    -3.184824752802
H      0.220744199586    -1.128705246145    -1.622595430474
H     -1.163253000078    -1.480315107990    -2.734143767868
N     -0.381181568825     1.410096767435    -1.110271389421
C      0.261200641670     2.356305788582    -1.832167199900
O      1.307754821567     2.957580419470    -1.435033465586
C     -0.321565985410     2.769103257707    -3.133098741530
H     -0.312244619943     1.921056677973    -3.832303238174
H     -1.344625700584     3.134321774129    -2.937819785921
H      0.286256548014     3.595839188511    -3.544172155797
N      0.561335961781     0.569867581904     2.782478915208
C      1.754879054553     0.909074769658     3.363854043222
C      1.990576319226     0.614395947698     4.689294881108
C      1.036689572823    -0.028974121600     5.445342158759
C     -0.140219083781    -0.381951104043     4.842500308684
C     -0.348548259995    -0.081228288232     3.479039307530
H      2.516671266008     1.415066022326     2.783244607082
H      2.931728065749     0.891878713005     5.136147319688
H      1.217689441164    -0.260628261810     6.491762950347
H     -0.916444087904    -0.900814444719     5.369763415891
O     -1.484811760421    -0.494634750977     2.998782131689
H     -1.598213652939    -0.519817436967     1.900724923089

