# STO-3G

title

0 1
C     -2.269204523835    -0.154896536079     2.102537588530
C     -2.677570645571     1.170135306713     2.361634551148
C     -4.028004705635     1.536777113878     2.181503734612
C     -4.966485514495     0.577968607189     1.745449684606
C     -4.556064060774    -0.748648168354     1.495225055403
C     -3.207524054664    -1.117759037614     1.676164531916
H     -1.235669287476    -0.448496965588     2.246102967956
H     -1.943940033008     1.900100543484     2.697202414844
H     -4.347499706187     2.556196174380     2.391149843133
H     -6.010413613425     0.858538554298     1.616978253234
H     -5.283994019975    -1.490876844452     1.172732509236
H     -2.865364956697    -2.133449279573     1.500289505902
C      0.647696738597    -1.261514214242    -1.854753943164
H      1.514596924656    -1.882067687264    -1.649312804494
H      0.820525216650    -0.377597866742    -2.460980982693
C     -0.643272114706    -1.717705153652    -1.573166441959
H     -1.491198500444    -1.146295053174    -1.919374591134
C     -0.964716242423    -3.083716601777    -1.126489632124
O     -0.063642076548    -3.968290147903    -1.138349918435
O     -2.321189949006    -3.433094495592    -1.000462646537
C     -2.572807764799    -4.738787574223    -0.464217833577
H     -3.668746358915    -4.897689179282    -0.380245800433
H     -2.154410011089    -5.528345083068    -1.128549578772
H     -2.128028468194    -4.835783872403     0.553129206688
Pd     0.159296664379    -0.205227024513     0.027456559687
C      1.978292295486     0.845051383629     1.968679722442
O      0.792173181271     1.172194615193     1.403055922767
O      2.639310202383     1.617974054423     2.690659150357
C      2.460843203268    -0.608092415417     1.619450472280
H      2.948047758098    -1.008561125955     2.517751952050
C      3.470810336489    -0.598821169180     0.493335723131
H      3.764803405359    -1.640902141495     0.250424122475
H      3.022143559489    -0.132209904879    -0.407184907940
H      4.372156145183    -0.024574264994     0.793267164387
N      1.292152654135    -1.385110607374     1.172011724212
C      0.716444128446    -2.443730161357     1.777321800695
O     -0.484884452271    -2.797294838555     1.577297401480
C      1.545483362092    -3.259771916401     2.695554193844
H      2.465231397631    -3.551378375999     2.160689176114
H      1.756533638512    -2.668015380038     3.600264177186
H      0.973506605428    -4.164208654460     2.973197863695
N     -0.879581539548     1.320062137739    -0.977141195117
C     -2.235847205877     1.484697581619    -0.878201977789
C     -2.813106815760     2.680827048201    -1.259609926830
C     -2.035472193376     3.713117266191    -1.737359233302
C     -0.680862863237     3.515043078209    -1.841875196757
C     -0.144295343299     2.269723024262    -1.433139804824
H     -2.856256565991     0.671502330913    -0.526343085921
H     -3.880504178437     2.800321308787    -1.169924076448
H     -2.487189452252     4.655046453931    -2.037423968826
H     -0.039071049310     4.274822436140    -2.236210069811
O      1.181302342652     2.058289319393    -1.575802889015
H      1.741027777619     2.851411240459    -1.494385047184

