# STO-3G

title

0 1
C      0.833297817435    -0.478378625917     1.211793152447
C     -0.244122888997    -0.797172899366     2.063754000013
C     -0.050625842806    -1.701016424132     3.126247102267
C      1.215472200156    -2.283336978629     3.337407237699
C      2.292173289704    -1.958726944877     2.488318101378
C      2.100372470668    -1.054112439378     1.424881860740
H      0.677979044952     0.223269963815     0.395737331567
H     -1.219321861518    -0.341936015060     1.902955405908
H     -0.882014169204    -1.948301015360     3.782458981107
H      1.362370578206    -2.981890549461     4.158465864493
H      3.270874871007    -2.403396245660     2.656305819715
H      2.936945502965    -0.794498715758     0.777618692261
C     -1.313826693151     3.185246714398    -0.864268771200
H     -2.309786515044     3.146923635460    -0.436383373584
H     -1.206026980398     3.549603294636    -1.879477263272
C     -0.183954000974     2.917642704898    -0.104166159664
H      0.788817362427     3.054707764853    -0.554424422703
C     -0.168668224952     2.735825233310     1.357952921329
O     -1.240963002853     2.770618151376     2.016525485218
O      1.077906014039     2.618601367644     1.997314569018
C      1.037164489809     2.410990119853     3.416397931938
H      2.073559504368     2.316705074141     3.804856621177
H      0.546504924406     3.269349261136     3.928612661820
H      0.491202173995     1.472691930953     3.664628528340
Pd    -0.949439588929     1.000450375446    -1.362036472517
C     -3.192237752121    -0.459916780372    -0.340907838828
O     -2.579851756663     0.746463130896    -0.249936023436
O     -4.152931689528    -0.785057088919     0.381230108101
C     -2.591693887962    -1.416526025900    -1.413890398755
H     -3.459804781539    -1.825761156036    -1.949704430186
C     -1.841222120183    -2.567848568286    -0.777294238447
H     -1.508563481670    -3.280106069163    -1.558416943500
H     -0.945688603189    -2.184071180082    -0.250968843190
H     -2.492484179517    -3.101163629579    -0.053228659457
N     -1.647485818333    -0.680699018758    -2.276488443810
C     -1.531309668936    -0.774947107540    -3.622020988123
O     -0.743914964442    -0.069886580185    -4.319994917318
C     -2.345743975771    -1.792969636755    -4.334573133823
H     -2.130451934998    -2.783989758143    -3.904038561496
H     -3.408531306231    -1.517182838055    -4.241291075037
H     -2.061862540765    -1.785897141252    -5.403319054304
N      0.864721576281     1.014114294235    -2.375881268054
C      1.480698399644    -0.210403570752    -2.386473106805
C      2.684263255125    -0.374859481804    -3.044415433327
C      3.251115630212     0.675266248113    -3.730418644781
C      2.602256936461     1.884369398253    -3.723576431267
C      1.374293468295     1.994851404208    -3.022412252042
H      1.039122221032    -1.043503800173    -1.852325462712
H      3.162746488212    -1.339943997048    -3.038718873541
H      4.190724963679     0.548428202178    -4.261675190098
H      3.011401877167     2.727735310919    -4.238156319508
O      0.745786419094     3.193577464052    -3.012897740493
H      1.021285383404     3.815577452590    -3.707885482146

