# STO-3G

title

0 1
C     -0.781407326508    -0.306143054475     1.259765697783
C     -1.857158560664     0.371086322601     1.865667990177
C     -2.290974365661    -0.009654942325     3.151096410216
C     -1.648773511030    -1.067466913172     3.825877322836
C     -0.573916360752    -1.745196415177     3.215664101115
C     -0.138343540953    -1.366211938133     1.930386827789
H     -0.453930874435    -0.016435484627     0.264334074886
H     -2.349733435543     1.181911405578     1.333508864953
H     -3.122243697152     0.511237710951     3.620938789912
H     -1.983473843621    -1.361503021039     4.818279432214
H     -0.078926538619    -2.561434514222     3.736840027649
H      0.687501631331    -1.892324755205     1.456157840369
C      2.728329377157     0.152301099729    -1.844026307183
H      3.135526870199     0.894445895138    -2.521701334761
H      2.977719790926    -0.885583393352    -2.023214088724
C      2.178179695427     0.476932621300    -0.605451332780
H      1.968187701284    -0.331762594378     0.075270945773
C      2.109471280745     1.837425040959    -0.043417422463
O      2.725259511187     2.781906996908    -0.608379547040
O      1.346142665371     2.051191869542     1.114142121416
C      1.194218149728     3.416697658036     1.523138869231
H      0.563764205614     3.455831155879     2.437642709455
H      2.182524640741     3.871320959328     1.760885512148
H      0.691411975674     4.012859239320     0.727580247490
Pd     0.466574165462    -0.018494404485    -2.106028503409
C     -1.734419472073    -1.591901033686    -3.162649689861
O     -1.390853797718    -0.298601550753    -2.873946347521
O     -2.630316113745    -1.888193317069    -3.962119137594
C     -0.940811385682    -2.615541943148    -2.324417433835
H     -0.846678750635    -3.517908324107    -2.944238339372
C     -1.740966885524    -2.958541180078    -1.076062295588
H     -1.182898069243    -3.645642947510    -0.411924398748
H     -1.960519521148    -2.035043395065    -0.503277140462
H     -2.701813915240    -3.438715135300    -1.358071796007
N      0.375562686556    -2.060886692000    -1.909975928602
C      1.377024292877    -2.828728564091    -1.413667681182
O      2.344399363578    -2.384256280631    -0.726676399169
C      1.418683849442    -4.271777013396    -1.773325077205
H      0.557981368545    -4.795104094529    -1.331811693583
H      1.428461547007    -4.352528007840    -2.873118464139
H      2.350175726361    -4.710348104538    -1.368446524401
N      0.102869221780     2.054344087477    -2.399889103020
C      0.993560113523     2.945627846619    -2.944363089829
C      0.713698859762     4.297631058620    -2.946642240245
C     -0.457520036171     4.772972368154    -2.404029472606
C     -1.355001885815     3.866491769212    -1.908957638375
C     -1.052801601733     2.490186087427    -1.965871998928
H      1.925984314793     2.597442115176    -3.365665200685
H      1.436735260880     4.985069040990    -3.354215451550
H     -0.674140720541     5.837825109168    -2.390842166963
H     -2.307363351975     4.163404067114    -1.517519981877
O     -2.026646656299     1.700652393291    -1.556636050048
H     -1.964981594954     0.767169503392    -1.995943435302

