# STO-3G

title

0 1
C      0.701180685649    -1.333676754949     0.830378847509
C      0.663012319520    -1.135241683981     2.224639141424
C      1.572224784916    -1.814619997519     3.060217419789
C      2.516729678157    -2.698018820484     2.500669409512
C      2.546293816925    -2.906338533757     1.106594590598
C      1.639443461442    -2.226500158760     0.269733767739
H      0.001125124787    -0.815323711731     0.180200171052
H     -0.076622051974    -0.467492305829     2.660286181790
H      1.540870944093    -1.660894308344     4.136763044926
H      3.216926436577    -3.225088893141     3.145662353079
H      3.266661194538    -3.599443742548     0.676558117501
H      1.643643339986    -2.382640192203    -0.805593086890
C     -0.384611064494     3.439774223386    -0.919367493992
H     -1.382681196396     3.866030409227    -0.957677862325
H      0.275580643187     3.662490964693    -1.751157608494
C      0.100358982896     2.842405584781     0.242861278113
H      1.133482441683     2.531608101718     0.300862620826
C     -0.620822682706     2.845835024004     1.530264480647
O     -1.587575317845     3.635179414484     1.701773633019
O     -0.047377592927     2.156099824003     2.612224071370
C     -0.760111037291     2.242523794734     3.854494761012
H     -0.225740209520     1.651600326576     4.629002723733
H     -0.820180377856     3.298595275950     4.203645826680
H     -1.790161142215     1.831196707160     3.748455110321
Pd    -0.717737095166     1.214215262661    -1.185870251442
C     -3.438429133074     0.545129182135    -0.675529433404
O     -2.445976171749     1.364197608864    -0.240668247445
O     -4.632807802003     0.724759428800    -0.384349457108
C     -2.959781366013    -0.670441450795    -1.522765623737
H     -3.665042431971    -0.738873767352    -2.364079129179
C     -3.056680843644    -1.937619331023    -0.687736896385
H     -2.837607269366    -2.834026338665    -1.298711295664
H     -2.328954293849    -1.888187305185     0.149346523557
H     -4.080493804789    -2.045637470861    -0.270482114875
N     -1.550368624157    -0.476523926154    -1.943948331472
C     -0.784150837700    -1.342085339041    -2.658687931106
O      0.479724592717    -1.373245507107    -2.606998503639
C     -1.425974629741    -2.296346839973    -3.598711292397
H     -1.233671189469    -3.315250613454    -3.222031887731
H     -2.501917326934    -2.109116799862    -3.708334649329
H     -0.937021127052    -2.169381728547    -4.581155674660
N      1.048137186388     1.224730265196    -2.297062680591
C      2.231910550239     0.710598683378    -1.836461790622
C      3.368870896786     0.796407649937    -2.617675517097
C      3.310861459346     1.350666443627    -3.878677039495
C      2.104293227589     1.826655575576    -4.324880599053
C      0.978713856872     1.722378465314    -3.487556144080
H      2.289238849438     0.287751158242    -0.842649132336
H      4.298160610670     0.401236431387    -2.241983861034
H      4.197707118480     1.404134528215    -4.504394580458
H      1.983759018016     2.252535480920    -5.300475663968
O     -0.159654885280     2.181974366884    -4.019398393277
H     -0.930845811134     1.991489158007    -3.426852899674

