# STO-3G

title

0 1
C     -2.499143230208     0.378978314418     2.318516932661
C     -2.544689708702     1.784510309695     2.420467497529
C     -3.769310021118     2.461338493718     2.246332792305
C     -4.945726137178     1.731312814879     1.977315275350
C     -4.898888007236     0.324043286364     1.887032859683
C     -3.675310881715    -0.353972650957     2.057743043296
H     -1.566637197629    -0.157251948991     2.470021587095
H     -1.634087023879     2.341457311779     2.631123409109
H     -3.807560367212     3.545680490518     2.331295072434
H     -5.892540018387     2.253827818667     1.855470963066
H     -5.811083747099    -0.238700994326     1.699312056819
H     -3.613466335656    -1.437492579672     2.005001103513
C     -1.829134320068    -1.611303447730    -0.822052510588
H     -1.991141131415    -2.399085741339    -0.095579560973
H     -2.680001172979    -0.983735587934    -1.044536896903
C     -0.670232248472    -1.543181768992    -1.600812285258
H     -0.576535951497    -0.783462001573    -2.367388362546
C      0.328687236187    -2.623839657298    -1.687237626232
O      1.314162804712    -2.468064158894    -2.455814724492
O      0.107378213756    -3.846601320882    -1.026384887475
C      1.002473869429    -4.915969677935    -1.362015730212
H      0.728052999629    -5.820823582961    -0.778247613573
H      0.927114207513    -5.166336912831    -2.444508118588
H      2.054903254838    -4.649025441271    -1.119934686703
Pd    -0.336691874858    -0.230073393915     0.215399479191
C      2.090476658145     0.243467197081     1.790014092326
O      1.104929422582     0.934262090292     1.140666952664
O      3.004929076945     0.793442954086     2.418636886163
C      1.969819740804    -1.298618808348     1.621859618902
H      2.330922841656    -1.728793923098     2.563810043075
C      2.869144480442    -1.786336176402     0.506421292691
H      2.766483089265    -2.883429162578     0.395215332341
H      2.589433745405    -1.296864354564    -0.448699771011
H      3.928772729837    -1.546377120122     0.735926917631
N      0.574706040895    -1.668047650466     1.303023587229
C     -0.166196517800    -2.619154465411     1.917102295793
O     -1.425420961080    -2.724062592421     1.802002723750
C      0.528528600704    -3.630668659216     2.750981313851
H      1.327839028059    -4.090572002340     2.146632218747
H      0.913911937460    -3.139520680867     3.658556507063
H     -0.203220806953    -4.406523917859     3.043606275896
N     -1.076214279031     1.496101760034    -0.760351218964
C     -2.412167217015     1.752155287214    -0.939001378392
C     -2.818092830029     2.832942445015    -1.695427112815
C     -1.892385352501     3.681546973897    -2.259348528619
C     -0.566288116966     3.446331454151    -2.015792876386
C     -0.192031269096     2.348508617686    -1.213309996399
H     -3.158362857055     1.107519231523    -0.496525196457
H     -3.871122057537     3.013491005838    -1.836853571999
H     -2.207298463093     4.533538524307    -2.856095833307
H      0.204405755884     4.096796933134    -2.379053754360
O      1.093798331344     2.277765426257    -0.945289065643
H      1.290760288146     1.744962456524    -0.070649764407

