# STO-3G

title

0 1
C      0.188499287784    -1.718323048811    -1.997007203460
C     -0.225360204439    -1.557433361891    -3.338839967312
C     -1.066684294611    -2.512218358235    -3.941728251179
C     -1.492837319262    -3.637755207988    -3.207110999650
C     -1.082478983930    -3.804626018571    -1.869685248610
C     -0.242656063174    -2.847995056706    -1.264046705276
H      0.882055972598    -1.005803046898    -1.560191477950
H      0.114572889088    -0.694102661136    -3.906829593882
H     -1.384383991822    -2.382179171234    -4.973319972997
H     -2.141606696470    -4.376160463312    -3.672337921301
H     -1.414813309546    -4.668886281295    -1.300292531949
H      0.066475059016    -2.975221615763    -0.230194640346
C      0.617500642062     2.422096689332     0.110576832109
H      0.012987672686     3.127374125717     0.674183339168
H      1.659765327166     2.319342731953     0.389156532089
C      0.190145841576     1.870590003902    -1.092620908119
H      0.909604171970     1.296635739906    -1.656711010559
C     -1.067921826376     2.216476627295    -1.776278928602
O     -1.868514527383     3.035979240769    -1.250708898759
O     -1.341438917680     1.614189188728    -3.014965763361
C     -2.640313519978     1.873470639309    -3.564702919456
H     -2.743224688233     1.336850920247    -4.532121259052
H     -3.438824691946     1.504811835701    -2.881035201308
H     -2.783039915192     2.962054209116    -3.750498027320
Pd    -0.036549650548     0.352671335918     0.737318602078
C      0.715034717992    -1.559050775303     2.739257308044
O     -0.375683752070    -1.127482143270     2.057893970181
O      0.669455190014    -2.454990322716     3.601736989064
C      2.028132404752    -0.802435559559     2.376036018725
H      2.839427414991    -1.537170896939     2.456746142041
C      2.296110809855     0.322468075996     3.355030287558
H      3.243622059335     0.834770805379     3.091740293305
H      1.467835841500     1.058945480055     3.312918110596
H      2.376851382614    -0.079877697397     4.387021854247
N      1.888618843094    -0.206508272171     1.032278383398
C      2.820036087563    -0.156596147522     0.063208921279
O      2.621582136182     0.347892458514    -1.087501654418
C      4.167094392033    -0.714234362306     0.337323100381
H      4.805349056507    -0.534328623924    -0.547489882365
H      4.594715171428    -0.195807399846     1.210459752269
H      4.076079622472    -1.801792881863     0.500920248884
N     -2.086443288510     0.668133902008     0.766914167826
C     -2.538243337929     1.344693193961     1.868706074866
C     -3.893753803042     1.499713717066     2.078852107038
C     -4.801732321481     0.972261480806     1.186852979365
C     -4.322319401004     0.284404042218     0.103113211311
C     -2.929913858647     0.142006906675    -0.062432372246
H     -1.828128290281     1.769744448422     2.568195000061
H     -4.239617592965     2.039536401153     2.944546473332
H     -5.870397042143     1.091333488145     1.343508680620
H     -4.972645027700    -0.166409815760    -0.618776770005
O     -2.592578831778    -0.561320980260    -1.133450335795
H     -1.638156427372    -0.816649101872    -1.235181740069

