# STO-3G

title

0 1
C      1.145604969558    -2.004420227157     0.899658310682
C      1.400405243334    -2.071100338908     2.284296787690
C      2.696064372474    -2.373269613760     2.749766879615
C      3.736722249516    -2.610381651968     1.829434430192
C      3.478503044048    -2.553398471351     0.444607855873
C      2.183616625402    -2.252670876988    -0.023047882681
H      0.149327653125    -1.772172864131     0.529239803783
H      0.594782044165    -1.905477267469     2.997371481473
H      2.891371609665    -2.429025060474     3.818648875534
H      4.736443912415    -2.846117550740     2.188525458166
H      4.279271420323    -2.750766474034    -0.265402955275
H      1.963118505586    -2.207849776745    -1.085552383522
C     -0.389966089158     1.007141661084     1.957571214949
H      0.676370517688     0.837837784127     2.065403212768
H     -1.051002986123     0.318623099475     2.473585103283
C     -0.917244114835     2.149204905595     1.363250364416
H     -1.984782317732     2.313702879817     1.385704120041
C     -0.112228366698     3.275391112360     0.858320597037
O      1.130335501509     3.304736297071     1.068621066758
O     -0.753856308113     4.279567718345     0.114983882199
C      0.105746037372     5.266526468853    -0.472037888810
H     -0.507761980973     5.997420595858    -1.041473764750
H      0.667870794443     5.820574117109     0.313665708352
H      0.825973307534     4.792715193515    -1.178026445821
Pd    -1.084151349064     0.379162766740    -0.119153672553
C     -3.775571593052    -0.487270079057     0.019110380769
O     -2.772452144289    -0.074001377746     0.836826172175
O     -4.977717284711    -0.386233018241     0.317526920404
C     -3.301152350300    -1.180276335790    -1.297874790820
H     -4.025932110875    -0.908180485487    -2.077729964746
C     -3.328633370344    -2.688384039769    -1.094003817080
H     -3.168156818728    -3.224301598648    -2.048685382862
H     -2.536076661067    -2.980729560874    -0.372675670111
H     -4.315469544238    -3.003589393830    -0.692250739854
N     -1.910714661800    -0.741767123644    -1.620891865097
C     -1.062468364971    -1.361079658624    -2.506957895354
O      0.179798101340    -1.454927050759    -2.338429778530
C     -1.609938357241    -1.841846072072    -3.799018991163
H     -1.449464472858    -2.932117791234    -3.849686976081
H     -2.674972090794    -1.585467651254    -3.901403807220
H     -1.037891773750    -1.345944168362    -4.603972638883
N      0.473939457365     1.130941892949    -1.271002537071
C      1.792454637528     1.073751804700    -0.900673043173
C      2.755117076794     1.678002999022    -1.686232919461
C      2.404106794637     2.327297382235    -2.849209630113
C      1.082281339604     2.341845127816    -3.212422202480
C      0.139771499948     1.690333311741    -2.393176652887
H      2.076196807065     0.595658374642     0.027893024505
H      3.785210261556     1.645912899862    -1.372518803761
H      3.158123705984     2.805794216307    -3.468135495175
H      0.744173473977     2.798687185403    -4.120006693812
O     -1.102043668017     1.685224263429    -2.870231583662
H     -1.671183873960     0.992345438443    -2.409319829733

