# STO-3G

title

0 1
C      1.079361836883     0.049448920539    -2.348790417610
C      0.219956826750    -0.649159787105    -3.222134751247
C      0.083599940917    -0.218780162292    -4.556663885324
C      0.801334135642     0.903785536766    -5.017696424336
C      1.662333938295     1.597536233561    -4.144442065639
C      1.802055892115     1.167543591989    -2.809695165564
H      1.172081949391    -0.276019763291    -1.314387685971
H     -0.339313960408    -1.507827583301    -2.860979407693
H     -0.575073573671    -0.758828862582    -5.233120100629
H      0.695908552453     1.230583438854    -6.050109340895
H      2.224054356741     2.458244541842    -4.500848612829
H      2.471676680321     1.703352564905    -2.137641394498
C      1.790158594155     0.684809047650     1.343749269030
H      2.303808571470     0.770677168699     0.390517315576
H      2.136403897144    -0.096875498302     2.009038381329
C      0.907284294827     1.651585875029     1.800802828834
H      0.531856906574     1.592189860602     2.810942136770
C      0.602220498810     2.896276568422     1.074267010983
O     -0.048821245437     3.801385328356     1.657895880282
O      1.057909613917     3.056220572322    -0.247318133119
C      0.624030888967     4.247932543266    -0.917282884853
H      1.019716279380     4.252138242666    -1.955668585481
H     -0.488094521040     4.289085967813    -0.970326620632
H      1.001232163691     5.155655908495    -0.393978396966
Pd    -0.225757519144    -0.233673002034     0.767483155423
C     -0.514894023784    -2.873017557486    -0.251051162413
O     -1.152376249913    -1.678965363581    -0.292560463294
O     -0.716914379512    -3.775163533302    -1.084949165550
C      0.561804689831    -3.008362868985     0.900059785770
H      1.544553757191    -2.936756561854     0.410939638460
C      0.467760109855    -4.357680433580     1.583757070128
H      1.269851894702    -4.468997588371     2.338516594105
H     -0.534989976584    -4.480204000852     2.039953331673
H      0.601853106409    -5.164332264188     0.832014791482
N      0.393143027598    -1.865084534921     1.811992519630
C      0.059252688473    -1.641950746038     3.085095104743
O     -0.487207393543    -0.534509909303     3.464890545588
C      0.438712462587    -2.590671825591     4.149903671781
H     -0.206924460103    -3.478972929325     4.089958258132
H      1.506631845121    -2.836137410986     4.030465242626
H      0.282027063807    -2.104995227384     5.131388827383
N     -1.654836300137     1.187708984286     0.227828848690
C     -1.964956738210     1.609332100350    -1.036322351499
C     -3.069343426456     2.411854692581    -1.239532860767
C     -3.876379968670     2.773012496007    -0.181969990362
C     -3.559602793664     2.311105356395     1.068926529689
C     -2.422987852796     1.493993839783     1.240889354176
H     -1.331081687543     1.340413680931    -1.870255295308
H     -3.301336802801     2.748681821901    -2.236083497041
H     -4.747626117552     3.403428950846    -0.337355712256
H     -4.148578326752     2.550297097196     1.931224803873
O     -2.227843004635     1.092963262962     2.481746028149
H     -1.490033060269     0.414042532616     2.767038076862

