# STO-3G

title

0 1
C      1.420885052055     2.009485712166     3.520070484644
C      0.708449227819     1.996446001365     4.736650936502
C      0.491321195572     3.195056591042     5.445800224880
C      0.990977201757     4.412240106594     4.940893177141
C      1.711363024133     4.427519949528     3.729431693151
C      1.926998465859     3.228086456074     3.021867131778
H      1.590571054363     1.084776947352     2.974763657854
H      0.330409261795     1.056228115174     5.133591060049
H     -0.057765045432     3.180674772071     6.384845307079
H      0.826229331591     5.337683190754     5.488464323453
H      2.106009392562     5.364853126910     3.342703457230
H      2.489120926831     3.229333397902     2.090677746610
C     -1.329794719979     0.664811569519     1.672525733305
H     -2.296401812447     0.177209605160     1.603522763828
H     -0.619931649668     0.253101605715     2.378392631589
C     -1.048039470448     1.872026887189     1.053505770669
H     -0.127271997249     2.380955595705     1.294695605120
C     -2.001581675438     2.630053858251     0.229530699446
O     -3.008401653548     2.039257902358    -0.247023405273
O     -1.677710456358     3.943839849873    -0.148745939668
C     -2.605913538021     4.592286126927    -1.028878765765
H     -2.244298997766     5.619505782187    -1.250749011346
H     -2.690874983114     4.039608605265    -1.991702233987
H     -3.610994551745     4.671303212347    -0.555929976220
Pd    -0.423119286917     0.065201085518    -0.366510171873
C     -0.440863260948    -2.452931475451    -1.744271900713
O     -0.121609993404    -1.146265275336    -1.950680669162
O     -0.466257081447    -3.301301073750    -2.651887566109
C     -0.776307550024    -2.803616129009    -0.243896732259
H     -0.348992947068    -3.792697334919    -0.031085975203
C     -2.266135002452    -2.854741023527     0.000144885038
H     -2.460020387543    -3.091011257217     1.066663587103
H     -2.720592563872    -1.870705134218    -0.237708081135
H     -2.730339678860    -3.636111650264    -0.637446016794
N     -0.234143946508    -1.719401970517     0.577625738141
C      0.887116058553    -1.699344235439     1.291449733408
O      1.526820796189    -0.609465509332     1.567538998968
C      1.402741438689    -2.960079617625     1.860072220308
H      2.251923143139    -2.725408619965     2.527852659599
H      0.590250412440    -3.435443970977     2.435399590639
H      1.750803229962    -3.607496064661     1.036989369348
N      0.438140737160     1.650942338630    -1.392179649362
C      0.003109145119     2.180044598670    -2.575404223450
C      0.782187831339     3.106644195599    -3.238308197673
C      2.003257026262     3.488686223734    -2.724957936504
C      2.427458852328     2.917718151178    -1.552455340502
C      1.611361187688     1.963105955468    -0.909893794466
H     -0.962636925218     1.890970336396    -2.973664022220
H      0.430601713471     3.527914279430    -4.165242166674
H      2.620540335270     4.217179469216    -3.243646888550
H      3.375388740167     3.156124114783    -1.114110600782
O      2.135254550600     1.457705651690     0.189739219384
H      1.769420236714     0.603693474043     0.684280735998

