# STO-3G

title

0 1
C      0.436435878237     1.750991330977    -2.887598481670
C      0.164522363490     2.512735406822    -4.041792845033
C      1.099810482931     2.568076766873    -5.094353085850
C      2.311332218076     1.855505176712    -4.992946799645
C      2.584711397065     1.092533718074    -3.840021924762
C      1.649910184078     1.038784733585    -2.787328438883
H     -0.295254055870     1.701150712360    -2.086907395449
H     -0.769423454516     3.068218467273    -4.124497689075
H      0.887915163935     3.158660619863    -5.983246984809
H      3.034301495782     1.894172932138    -5.804855207070
H      3.517159009792     0.538889051596    -3.760842253430
H      1.862306820860     0.448700262412    -1.899548326334
C      0.032644570555     2.588191052030     0.395847352942
H      0.895580056567     2.369297353775    -0.222179165832
H     -0.702403897184     3.262989911797    -0.031577116246
C     -0.034779712098     2.187835054317     1.725535645835
H     -0.848719630661     2.529701674455     2.349396691356
C      1.061135197272     1.512532011907     2.442231161345
O      0.860644207331     1.142732715465     3.629640683406
O      2.345751490910     1.471444105835     1.872446051962
C      3.296303202637     0.633881656613     2.542933221797
H      4.261594027668     0.663677565902     1.993918950355
H      3.473815895036     0.986139528992     3.584057506443
H      2.943248271811    -0.422685783501     2.558543256145
Pd    -1.115697037365     0.610310892344     0.434748341182
C      0.564610085500    -1.561400385308    -0.372609669600
O      0.612450387728    -0.347731354044     0.233176032843
O      1.581844671333    -2.253579615371    -0.562750718509
C     -0.857993617136    -1.990568616955    -0.834523008777
H     -0.919863613239    -3.071813022903    -0.652513885440
C     -1.048642702981    -1.737275701978    -2.316855101403
H     -2.029856725806    -2.130342660397    -2.647749812675
H     -1.025384797771    -0.647170910489    -2.512426228494
H     -0.244175374980    -2.232602304111    -2.900340343823
N     -1.863427963317    -1.199623479569    -0.098847551372
C     -3.061246439040    -1.619811545190     0.354504139494
O     -3.856250064880    -0.914608139996     1.046546163043
C     -3.488492903070    -3.009546696419     0.047675851008
H     -4.506456513222    -3.156787576136     0.452222836876
H     -3.505585627677    -3.140832080488    -1.044970146138
H     -2.797664321468    -3.712087225369     0.543230695656
N     -2.887237414303     1.683031704185     0.564537883641
C     -3.621282400375     1.690881008254     1.721840276944
C     -4.783386127090     2.436741094572     1.793353797985
C     -5.235443906941     3.134248255167     0.695707908412
C     -4.490112658547     3.093379138993    -0.457134807759
C     -3.296464148812     2.329508771553    -0.465623264846
H     -3.272811667407     1.139679586712     2.588088604524
H     -5.350896407266     2.437611746369     2.709314896999
H     -6.158383130840     3.706188522405     0.744675335779
H     -4.800603303700     3.630346781186    -1.328218260495
O     -2.540234540491     2.309816509584    -1.588203138758
H     -2.955382739287     2.671120697628    -2.390519459061

