# STO-3G

title

0 1
C     -0.411919069029    -2.348724054179     1.301083516894
C     -0.895058553952    -3.097272915265     0.206664894324
C     -2.114390053730    -3.797158712936     0.315818246130
C     -2.845749055735    -3.756910635348     1.520078184097
C     -2.357213761029    -3.017638538810     2.618414794403
C     -1.142006839361    -2.314031952662     2.508267166953
H      0.530618962393    -1.813237416451     1.242571803300
H     -0.331028810040    -3.135286376523    -0.722851726049
H     -2.485449390998    -4.375318895018    -0.528016858370
H     -3.780635020660    -4.306961227152     1.606355106810
H     -2.914529600974    -2.999770481789     3.552645679729
H     -0.750969554629    -1.747619303978     3.349937653665
C     -0.874905949414     1.331794578813     1.447453365218
H     -1.958162359649     1.285231697685     1.482257987842
H     -0.292474909792     0.867211909756     2.233752921785
C     -0.230167143209     2.202184549451     0.561760928447
H      0.829704243714     2.375467998512     0.668959988329
C     -0.910355816385     3.083564432762    -0.403952459082
O     -2.168714150059     3.113404093320    -0.453945515623
O     -0.123186564132     3.803521889236    -1.317232057086
C     -0.834745467554     4.434623717544    -2.391267707212
H     -0.113481776604     4.961739334816    -3.052100479259
H     -1.373743095799     3.676286654920    -3.005598090612
H     -1.562745683613     5.181874639443    -2.001713753307
Pd    -0.082832663791     0.139771122803    -0.373784305032
C      1.954465638403    -0.169681435568    -2.437075870380
O      0.616366552825    -0.345634931658    -2.277922650606
O      2.491108168567     0.046955411212    -3.534010181701
C      2.752538533393    -0.311658813044    -1.116241985421
H      3.631015263954     0.330562333825    -1.259400148625
C      3.203921200918    -1.752913012102    -0.942640298973
H      3.863930720573    -1.856590420770    -0.059649549563
H      2.315637373644    -2.403401854725    -0.801252935366
H      3.763985986165    -2.091327824308    -1.840237776409
N      1.922162301032     0.069892281095     0.055900209401
C      2.347073414919     0.196599234278     1.335593816271
O      1.564146967013     0.239807205730     2.333905158289
C      3.793092359548     0.335534582603     1.652199675738
H      4.089581641172    -0.550010884532     2.239886588644
H      4.424108848924     0.439243389656     0.762699687437
H      3.907835212358     1.240734391377     2.275258642259
N     -2.038548403852     0.023318492133    -1.085661179258
C     -3.050014262920    -0.435699734924    -0.282397470859
C     -4.351467702283    -0.447071438448    -0.740638097171
C     -4.651695904659     0.003254069953    -2.006600587409
C     -3.623726173130     0.420846015571    -2.808518389045
C     -2.302823180803     0.397229013166    -2.313517880335
H     -2.834224337200    -0.777882103936     0.720646305152
H     -5.137011839606    -0.797530086849    -0.092294626472
H     -5.676638910896     0.008253678445    -2.367327272534
H     -3.783750404111     0.754096228607    -3.813687678471
O     -1.382484293237     0.742035888697    -3.183856008388
H     -0.424393029050     0.357082910083    -2.948897728950

