# STO-3G

title

0 1
C     -2.331482905559    -3.035108373140    -1.330681175920
C     -2.911558481294    -3.110085955862    -2.614368930975
C     -4.214869705983    -2.617560898520    -2.824230388022
C     -4.935732428629    -2.054346061858    -1.752004017049
C     -4.355074890068    -1.980001316775    -0.469661412200
C     -3.052900002613    -2.472570254083    -0.256974585457
H     -1.336518722472    -3.439628605643    -1.166210910350
H     -2.353056575460    -3.547820691744    -3.438744151878
H     -4.664025015837    -2.674108934259    -3.813087454928
H     -5.941116133669    -1.672672366648    -1.914347655694
H     -4.899876419435    -1.530318291090     0.355819434798
H     -2.605791985782    -2.393905608662     0.730781692150
C      0.777331630392    -2.787172830910     0.267971647804
H     -0.205232555817    -3.067467133015     0.631612440935
H      1.113630182147    -3.262263161206    -0.648888857616
C      1.646488864485    -2.044316505139     1.057869198763
H      2.663601963446    -1.882241744378     0.732992557581
C      1.367321581090    -1.653620867798     2.452596467875
O      0.457900728079    -2.243222494374     3.095323815226
O      2.280157531256    -0.801190797920     3.096851483548
C      1.953772802178    -0.450556770175     4.449160245173
H      2.728202375196     0.238291981179     4.849473722680
H      0.968391053182     0.067801420972     4.495359404234
H      1.924352646226    -1.355822501836     5.097412434615
Pd     0.558786976685    -0.595375400905    -0.377916195888
C     -1.765349929344     0.634736292999     0.738701702088
O     -0.805630441060    -0.282663577352     1.029228652235
O     -2.728161991670     0.859389783682     1.493611179257
C     -1.560259757639     1.376306486101    -0.616954036759
H     -1.776313194238     2.432908688617    -0.409841814013
C     -2.531205469820     0.885147961384    -1.670641552989
H     -2.408746714789     1.467359486147    -2.604993911437
H     -2.337385314089    -0.181146609572    -1.894270825905
H     -3.576122899384     0.994786236849    -1.311316872754
N     -0.185640180752     1.137531152841    -1.097385350189
C      0.653654576300     2.031178369354    -1.668053678814
O      1.884631065561     1.823081380509    -1.874165057910
C      0.107773414045     3.349251682036    -2.080241423910
H     -0.738388908466     3.184105793848    -2.765524553660
H     -0.187082629065     3.906656749251    -1.177103162262
H      0.902559603270     3.909852646293    -2.606696937518
N      1.900824092826    -1.013293532823    -1.915139879074
C      3.197593133045    -0.569509214239    -1.877835831819
C      4.071787487631    -0.916356333017    -2.890858543813
C      3.638121186470    -1.664352596988    -3.963875051861
C      2.327711167987    -2.067979137631    -3.987147316000
C      1.479306945057    -1.700028642158    -2.926156993889
H      3.547457505361     0.014005282587    -1.033729310631
H      5.091093950752    -0.569611676377    -2.849103020634
H      4.316563755192    -1.923570372261    -4.772297377661
H      1.922261019604    -2.640049183075    -4.797271240219
O      0.222315010513    -2.134792984075    -3.052607624238
H     -0.375328998799    -1.812176397774    -2.333614654553

