# STO-3G

title

0 1
C     -2.495513536045     0.325616506590     4.010319073525
C     -3.492548954518    -0.428859102618     4.660604367269
C     -3.426755032239    -0.640767416667     6.052870477475
C     -2.362754353410    -0.093889461674     6.797203271196
C     -1.365438446652     0.662528624049     6.147993788478
C     -1.430081810762     0.870178167659     4.756260995263
H     -2.540860724507     0.488321531041     2.937944965005
H     -4.314370513273    -0.850857973084     4.084839904433
H     -4.198271717759    -1.223620262830     6.551828017865
H     -2.313290626983    -0.253031477252     7.872470259276
H     -0.545387894150     1.087169903372     6.723394756700
H     -0.662010262236     1.433619556257     4.235410311356
C     -0.663601388975    -1.586098209438    -1.095108580070
H      0.306226628004    -2.021972284188    -1.314592536941
H     -1.378346017896    -1.542031451062    -1.909003541559
C     -1.078469683404    -1.376308564080     0.215748900366
H     -2.103085930483    -1.097838548869     0.419300632856
C     -0.311552768013    -1.793137916751     1.404012869335
O      0.882651930969    -2.180229644971     1.280803997144
O     -1.000432032956    -1.939863404775     2.616515749025
C     -0.200104307987    -2.253840855957     3.763602393444
H     -0.855854189049    -2.307693911552     4.660318757083
H      0.307847908454    -3.236202960950     3.637832238226
H      0.556461621320    -1.457603295100     3.943941326337
Pd    -0.282882418294     0.611079733268    -0.933359045442
C      1.875860763622     2.297619688867    -1.774527640422
O      0.514230218054     2.240677832832    -1.833499523589
O      2.553589871907     3.105341677407    -2.430666533446
C      2.526252623260     1.243690732034    -0.793211303282
H      3.339463626166     1.750506118633    -0.256951098581
C      3.098951523493     0.058640672464    -1.533065705807
H      3.525793911152    -0.660429509468    -0.802982212292
H      2.298230577485    -0.450803420149    -2.104840164518
H      3.896556862528     0.391547038899    -2.229603687364
N      1.448062955690     0.751791814601     0.067049496601
C      1.173353860744     1.108768494629     1.319768725196
O     -0.025359934062     1.101217025986     1.803788683932
C      2.280091443633     1.458999336154     2.230543931471
H      3.017769998120     0.637924892743     2.197950249605
H      2.718621479994     2.415370780344     1.903191392697
H      1.880888544428     1.565331579947     3.255770247679
N     -2.244775489181     1.105198111681    -1.381107469336
C     -2.813804532969     1.245667426833    -2.616361677422
C     -4.101533205884     1.729224558940    -2.727191184737
C     -4.811904536082     2.094000958577    -1.603305820027
C     -4.205122286840     1.972843958549    -0.379947856090
C     -2.882136711185     1.489710360698    -0.305198477601
H     -2.262593650329     0.950853394908    -3.501747294721
H     -4.548667062475     1.828757425641    -3.702674844638
H     -5.824723359459     2.479326588829    -1.686119984436
H     -4.693428952743     2.263172035753     0.529176381910
O     -2.386740673068     1.458955888339     0.913657688855
H     -1.371336608809     1.288402237162     1.156829524920

