# STO-3G

title

0 1
C      2.241151093184    -0.666626451897     0.176609374930
C      2.162370380011    -1.079128338441     1.523543388534
C      2.935729521479    -0.434272044090     2.509313467861
C      3.794117204434     0.626228348903     2.152228608762
C      3.889781502375     1.027984001195     0.804559512181
C      3.120065668961     0.376419763011    -0.180799542680
H      1.639300594135    -1.169485552644    -0.576163908141
H      1.503029814494    -1.899478021230     1.795555177450
H      2.878121783606    -0.765114266420     3.544218773271
H      4.398024530587     1.118233363873     2.912062418418
H      4.570479831918     1.827727677116     0.519931012913
H      3.219528871330     0.671230574395    -1.224297083182
C     -1.578399792237     0.703099700621    -2.187542334892
H     -2.387385528614     1.399639498813    -1.985826925318
H     -1.845450224912    -0.243428407328    -2.642435943579
C     -0.237568179839     1.061174956562    -2.057217295908
H      0.524422747795     0.369161353760    -2.380905550421
C      0.218274118938     2.432234739402    -1.763258671590
O     -0.624712799181     3.352415859236    -1.577987280171
O      1.598336204318     2.685367452765    -1.694251576679
C      1.974233129314     4.022677059582    -1.337551732486
H      3.082601553381     4.097934964324    -1.308981443873
H      1.595334296279     4.753405990412    -2.087903657020
H      1.580570670782     4.288701858113    -0.330218680039
Pd    -0.971117029245    -0.208001513600    -0.215882608396
C     -0.998769433695    -2.991817676480    -0.906185877067
O     -0.574815569188    -1.776947977104    -1.367307551483
O     -0.786692347643    -4.038704436056    -1.542268028609
C     -1.762054633023    -2.917989035562     0.431361224058
H     -1.493148703199    -3.787854299548     1.040573991740
C     -3.263309921881    -2.939046555775     0.207439686148
H     -3.786845842008    -2.971014137535     1.185506482811
H     -3.571123905107    -2.020780784490    -0.332340550794
H     -3.551466526172    -3.835241913276    -0.380885155492
N     -1.418712005344    -1.658945718966     1.145344907162
C     -1.510967927533    -1.719866712868     2.495897658317
O     -1.852584252109    -2.745687180994     3.152390565856
C     -1.153385769249    -0.503802026642     3.245981192195
H     -1.191709419818    -0.733390800181     4.325472177728
H     -0.132747561710    -0.216699009487     2.958789105351
H     -1.891356621160     0.275251732115     3.006193257842
N     -1.165958066633     1.544404923997     0.873393602381
C     -0.058825004017     2.082053380365     1.476621836826
C     -0.165866819459     3.261797787842     2.184724696626
C     -1.376897125901     3.912327978292     2.280864564100
C     -2.469458908448     3.355212604841     1.663659667464
C     -2.300625769882     2.146244986214     0.943161304049
H      0.896704860660     1.580583881684     1.401184026735
H      0.709801430795     3.674522747438     2.658712962659
H     -1.463036703268     4.845223977541     2.832115206113
H     -3.424153675200     3.836405887766     1.702961307324
O     -3.363087493367     1.591124169921     0.325709255491
H     -4.212018241281     2.054093703714     0.435080972246

