# STO-3G

title

0 1
C     -2.679299860270    -1.850359087704     0.367251259898
C     -2.862747263013    -1.387653162734     1.686119750243
C     -2.910054260203    -2.301036631760     2.757782300397
C     -2.784592904347    -3.683587785577     2.512474666236
C     -2.626279512081    -4.151262445205     1.192199994865
C     -2.577409235270    -3.235766137163     0.121647024028
H     -2.638279136869    -1.133099254603    -0.448075435855
H     -2.965685803366    -0.320608103915     1.869108376817
H     -3.053461939769    -1.938528917149     3.773392521922
H     -2.829174521976    -4.389766379910     3.338989850387
H     -2.557682458430    -5.219855044983     0.998300071396
H     -2.483122179732    -3.604883345129    -0.897782017120
C     -0.401124853321    -1.768350536823    -2.183376258235
H     -0.277547824078    -2.730504139713    -1.697439157303
H     -1.405079058487    -1.482085531197    -2.476335550270
C      0.682281895316    -1.018225882517    -2.636263440501
H      0.499339718398    -0.142199955863    -3.241137078240
C      2.091188288968    -1.443368249545    -2.551586693394
O      2.383877209026    -2.556084757187    -2.034757974730
O      3.080407595767    -0.610130576568    -3.101054628382
C      4.432150244481    -1.069795604841    -2.965423321963
H      5.119919723084    -0.331573595464    -3.431168557974
H      4.707248228292    -1.174256289795    -1.891441113231
H      4.571229030873    -2.047371938409    -3.480727768962
Pd    -0.091201928337    -0.083896438459    -0.691537126005
C     -1.650982779046     2.161613989046    -1.497419817849
O     -1.450531825899     0.844727539823    -1.812908642607
O     -2.464280910512     2.868089145950    -2.116699750701
C     -0.753837018410     2.667462515762    -0.339734707360
H     -1.296499151932     3.425543017645     0.235747058834
C      0.526356212064     3.287401465218    -0.870792666610
H      1.124546110875     3.690929443770    -0.028331526773
H      1.124059969129     2.515739627231    -1.397512826031
H      0.288238140433     4.116079096027    -1.569783483523
N     -0.409740307380     1.508012904356     0.516406392727
C     -0.104445395785     1.756449651993     1.810322379016
O      0.070225176524     2.906448603882     2.312850685418
C     -0.086269296368     0.600775630728     2.728961710963
H      0.932524297485     0.498020126461     3.134155375434
H     -0.798284208202     0.819469135382     3.542004304604
H     -0.402768518135    -0.308635467715     2.199523823151
N      1.352863261748    -1.025309803095     0.455912608273
C      1.122795708173    -2.237984445464     1.051773801706
C      2.011748552243    -2.720213369308     1.992542764065
C      3.150729454112    -2.011946286236     2.309043643924
C      3.372820545737    -0.815284716025     1.673659408657
C      2.422869944472    -0.363618282976     0.726591422702
H      0.228407670640    -2.799150464728     0.811777230654
H      1.814698547925    -3.668243518104     2.466431390835
H      3.860921330990    -2.399067395270     3.035254566757
H      4.262520980133    -0.248714471971     1.855655356416
O      2.665556102637     0.776681556507     0.057431724828
H      3.193382434977     1.445420902623     0.531231825546

