# STO-3G

title

0 1
C     -1.990026940629     0.459283246932     1.259876798264
C     -1.871604377964     0.208356466714     2.643210491667
C     -2.265514223950    -1.034707452345     3.177877723386
C     -2.792066454887    -2.030220991173     2.329569791826
C     -2.924863668569    -1.778246052019     0.948906785134
C     -2.524286113788    -0.536855210641     0.415016817321
H     -1.698664463907     1.427549563639     0.859809022304
H     -1.486915213799     0.983735600766     3.303841580914
H     -2.177360301068    -1.218424268004     4.246684647124
H     -3.108086095019    -2.986359133963     2.741867106620
H     -3.338659718598    -2.539901425517     0.291739202080
H     -2.619715903754    -0.353774035867    -0.651402743238
C      1.951856076977     2.518355009389     0.120269315261
H      2.989456778023     2.281563617238    -0.108166603445
H      1.503011138252     3.347899987017    -0.410452684002
C      1.309495490860     2.005518731767     1.242841725563
H      0.344351268652     2.416392781401     1.492615259068
C      1.951990556692     1.122015154163     2.232870278673
O      3.163380282867     0.801289791336     2.092019560573
O      1.198149240903     0.665648191920     3.326840063850
C      1.857123788165    -0.266155111049     4.195374491022
H      1.162112447914    -0.565278958540     5.008959975309
H      2.155567289480    -1.183261260387     3.637820935593
H      2.759170137307     0.194421043513     4.658426164421
Pd     0.601751987663     0.870947541629    -0.723418305324
C     -0.794485688385     0.312200057162    -3.165991703016
O     -0.218179722042    -0.325058060334    -2.113506868566
O     -1.346134444980    -0.290824006774    -4.103413625865
C     -0.698557933193     1.866793106583    -3.094361832305
H     -1.625703132262     2.252066919958    -3.537514415218
C      0.472735740307     2.386852986355    -3.902109661345
H      0.510253670244     3.493594483366    -3.842315441702
H      1.419500606713     1.974098416398    -3.500676180780
H      0.365567753081     2.085819484685    -4.965790902447
N     -0.498267238067     2.267055613330    -1.688368502352
C     -1.081461934016     3.286619927940    -1.032417488017
O     -0.903405190457     3.525581268259     0.203515163596
C     -1.981428691269     4.195289245916    -1.783222743130
H     -2.311672385012     5.000063356590    -1.100706618212
H     -1.421180982960     4.632478059596    -2.625302374587
H     -2.863232793442     3.624328243531    -2.121116698092
N      1.616631409919    -0.811416403771    -0.026246247922
C      0.989985303821    -1.747350107648     0.753758018653
C      1.656781636308    -2.905724829135     1.105147255117
C      2.940330646171    -3.138304116848     0.655744553698
C      3.529672657409    -2.195910273772    -0.147490592019
C      2.811124633695    -1.030293388982    -0.471164232195
H     -0.010027871298    -1.567928430761     1.119269832115
H      1.159916079756    -3.632268965940     1.726317277824
H      3.467463343206    -4.049898043155     0.923728833324
H      4.517752481536    -2.316356288093    -0.542855397160
O      3.438747593303    -0.186516818543    -1.295704732393
H      2.842056516996     0.566883704705    -1.532085297524

