# STO-3G

title

0 1
C     -0.976393379987     1.648885223673    -0.998380575065
C     -1.637708695946     1.031891700066    -2.079558965780
C     -2.928698170934     0.496580601135    -1.898681940205
C     -3.561171406174     0.594386236170    -0.644142482639
C     -2.901684703793     1.221486394044     0.433054711453
C     -1.605324204698     1.742830063812     0.259972364529
H      0.005073844787     2.092676096464    -1.139038886330
H     -1.157504317702     0.975716025432    -3.054480764254
H     -3.438060048645     0.015745708720    -2.730393989383
H     -4.560916844293     0.188841384219    -0.507105171832
H     -3.392732466637     1.300269973961     1.399944040663
H     -1.091524132711     2.213985077090     1.094690324870
C      2.276685672069     1.800669040649     0.060085391678
H      2.290827619020     2.130696588517    -0.976839570187
H      1.417841803613     2.028488469926     0.678811104612
C      3.433997179351     1.377966603926     0.705448426478
H      3.379954993909     1.239503137692     1.773726518766
C      4.772448731462     1.345515650813     0.090137639722
O      4.940528110584     1.796768438813    -1.074773984982
O      5.829239368330     0.757135150226     0.805373727501
C      7.097912434114     0.728845601180     0.135983546544
H      7.850493645396     0.241751889028     0.792862433846
H      7.033362775696     0.147440598124    -0.812016343883
H      7.449361174932     1.761641157212    -0.088495049853
Pd     2.179882097344    -0.503362505328     0.148377006138
C      1.106542149106    -3.041060584838     0.929887865197
O      1.914566408378    -2.479397905586    -0.006415637078
O      1.000193175544    -4.270861915447     1.078064652170
C      0.300485474423    -2.006763053723     1.757865579516
H      0.142579798183    -2.460497930963     2.744833977332
C     -1.049334811668    -1.753397457082     1.112941862313
H     -1.650774677061    -1.061693604786     1.733277971209
H     -0.907951099475    -1.294313317783     0.112293716981
H     -1.607057025999    -2.706851354126     1.000095406589
N      1.035141593018    -0.717230804609     1.809623143399
C      0.940786683092     0.198948255995     2.795502569472
O      1.448571897061     1.362599020792     2.744196535641
C      0.238410048365    -0.169516452017     4.051926452712
H      0.286471349056     0.691282038080     4.744078042947
H     -0.814889043899    -0.393976636416     3.826041111286
H      0.758050278420    -1.029322178374     4.508935117112
N      3.197095427266    -0.692307164752    -1.649514858421
C      4.320378184292    -1.475321228929    -1.689103713616
C      4.966350290470    -1.688542453660    -2.891742484659
C      4.475486866795    -1.134739649187    -4.056175630267
C      3.325575781869    -0.389625397449    -3.989165397117
C      2.705001057976    -0.203639639923    -2.739888501493
H      4.714937377368    -1.901435714397    -0.773755984452
H      5.856456737875    -2.294788840570    -2.915200800750
H      4.978313656012    -1.298769389739    -5.005415616751
H      2.876918595403     0.048028628696    -4.857634877494
O      1.554984550053     0.475299237411    -2.781607476411
H      1.088803219975     0.476678572765    -1.909620202946

