# STO-3G

title

0 1
C     -1.683794511315    -2.349498979587     0.374994502289
C     -1.563670527108    -2.791931203566     1.709354433782
C     -0.985852907107    -4.045799545710     1.982202413451
C     -0.520366436154    -4.854359667053     0.924128097213
C     -0.635984124996    -4.408946432654    -0.406768600594
C     -1.220352592865    -3.156846731120    -0.683541060605
H     -2.163189895336    -1.384328593428     0.202318016789
H     -1.912691716742    -2.148547419535     2.511804802236
H     -0.897416141183    -4.390998228360     3.009941328614
H     -0.070279768643    -5.821981724519     1.135619066885
H     -0.269460536218    -5.028144179748    -1.222443494792
H     -1.293885776200    -2.816027882317    -1.713792100785
C     -2.341152146238     1.876751712282    -0.187772935918
H     -2.478980226353     1.849430949069     0.885099748884
H     -3.203976364635     1.629972845485    -0.794623471393
C     -1.213940710980     2.463933783585    -0.788016329880
H     -1.173512796199     2.571177565173    -1.864469368403
C     -0.167366545688     3.212387295475    -0.066488513360
O     -0.297838483094     3.473065169802     1.160627261118
O      0.945525955443     3.663380706095    -0.794400777251
C      1.973085781450     4.314304238724    -0.035024408528
H      2.800154611029     4.610558427414    -0.716237781869
H      1.580562892450     5.232539855911     0.457826835752
H      2.390390014514     3.627188602824     0.735089464606
Pd    -0.767395655549     0.269872524602    -0.647080854358
C      2.146125606997     0.146032879820    -0.521984250769
O      1.166117760772    -0.273708185316    -1.364724377152
O      3.287073035640     0.470570839466    -0.885014204113
C      1.698760616446     0.135299797879     0.966238619978
H      2.344805922987     0.867708187664     1.467475097578
C      1.934642105626    -1.243717103300     1.560154096331
H      1.712751303850    -1.247863787650     2.644902859623
H      1.270679966985    -1.980650916522     1.058798717939
H      2.992174341270    -1.549522937266     1.415728079156
N      0.255703967397     0.457780653864     1.076839536112
C     -0.479073212141     0.578391438849     2.206874682898
O     -1.743424308660     0.442215547518     2.230733251546
C      0.174159317525     0.930177063787     3.491845723106
H     -0.332612710194     1.837617178032     3.865508068887
H      0.008832152144     0.093581100726     4.190198412669
H      1.244139318016     1.146701122926     3.376165150882
N     -1.643676289419    -0.078525440015    -2.513934113426
C     -2.971966378174    -0.397154518087    -2.623280209673
C     -3.550477420198    -0.545257500898    -3.865621299934
C     -2.802871335602    -0.386644857334    -5.011006526352
C     -1.470108283058    -0.102612242266    -4.882127395930
C     -0.901964440273     0.024031636527    -3.596386462340
H     -3.573800154692    -0.527438429674    -1.731856988213
H     -4.598466869045    -0.787849662202    -3.938179009764
H     -3.255790807910    -0.499870531027    -5.992561785885
H     -0.826206983416     0.006203887834    -5.732558400867
O      0.383716975849     0.237051939280    -3.586717973351
H      0.901108160715     0.059084942748    -2.641730062834

