# STO-3G

title

0 1
C     -1.069869910543    -2.892548639545     1.513464933810
C     -1.244337290890    -2.754321711304     2.905035061574
C     -2.197308364622    -3.543657999437     3.578359426286
C     -2.976516176659    -4.472278650198     2.860412896463
C     -2.800675570731    -4.612079690985     1.469281804178
C     -1.848190793803    -3.823011891287     0.795478467768
H     -0.343117362680    -2.283120054923     0.982443113756
H     -0.648170486931    -2.040453265647     3.469197810783
H     -2.332276619199    -3.434608565409     4.651940486921
H     -3.713287532992    -5.080641437181     3.380044366139
H     -3.400924994361    -5.329345215747     0.914090519166
H     -1.704550300815    -3.920543455885    -0.277164058606
C      1.424473247185    -0.529479645108     1.867340768290
H      1.845977957948    -1.528956673380     1.944835939441
H      0.396113157668    -0.409106837081     2.192410836607
C      2.188630539107     0.594347879024     1.578041142418
H      1.707586667194     1.561085699988     1.600424099941
C      3.656714991392     0.619643083379     1.470691730561
O      4.317370745268    -0.440988699646     1.635224049117
O      4.290265672240     1.835779139642     1.167782168265
C      5.720441574800     1.791544341617     1.064432695919
H      6.103233398813     2.807322027581     0.825174504013
H      6.177386590438     1.466328715250     2.026707849916
H      6.037905380452     1.100913590400     0.250537626295
Pd     0.895148829199    -0.069265715332    -0.293223241420
C     -1.359994078512     1.713909481079    -0.270498201260
O     -0.196905922503     1.459019563965     0.384703936849
O     -2.119368096732     2.645530937231     0.042970569290
C     -1.679894933629     0.725131162455    -1.440725935449
H     -2.136393057631     1.333580552868    -2.230287662718
C     -2.691951930112    -0.317474777858    -1.017384674333
H     -2.908292595548    -0.999968931984    -1.865433989860
H     -2.298437274615    -0.911075278755    -0.167725174501
H     -3.637211345100     0.173549742225    -0.703118682038
N     -0.439330271300     0.027242387547    -1.876025015016
C      0.205042881422     0.284581191454    -3.075328801841
O      1.442266745763     0.158689421767    -3.230186448089
C     -0.625903604806     0.599708956257    -4.261656519028
H      0.013005868592     0.520891777321    -5.160782010370
H     -1.442239429787    -0.140161335719    -4.322022830745
H     -1.003237150893     1.632542583963    -4.179002317360
N      1.863433021436    -1.757772244748    -1.032875959553
C      3.223516338022    -1.916344611893    -1.017353972569
C      3.783069368327    -3.125576423314    -1.381331107522
C      2.986202584128    -4.171637523236    -1.791371589078
C      1.633548700166    -3.966538987124    -1.865137603198
C      1.107932372993    -2.709512049978    -1.505362374729
H      3.861471565999    -1.097769842492    -0.719282358815
H      4.853369576472    -3.244347541796    -1.341955801566
H      3.422298153944    -5.125248685478    -2.076555089477
H      0.961138504713    -4.719630736021    -2.222311636460
O     -0.190756318378    -2.565212032321    -1.701144707614
H     -0.442355408982    -1.541250484175    -1.745018345264

