# STO-3G

title

0 1
C      2.353356392009    -0.437101383686     0.106482774283
C      2.956854449222    -1.442783758171    -0.676430184193
C      4.330127946500    -1.714671970300    -0.519296962609
C      5.094672841405    -0.988797306792     0.416637426084
C      4.486738386790     0.011976758142     1.200102676204
C      3.113492567983     0.287439252179     1.046710427148
H      1.295152629997    -0.225388921155    -0.032673414537
H      2.361069117864    -2.001759704402    -1.393019017249
H      4.799116645786    -2.489306870452    -1.121349084619
H      6.154636055228    -1.202312458762     0.535720084930
H      5.074491264687     0.570954784076     1.924595337163
H      2.643114205005     1.057424312010     1.655623615136
C     -0.903486205018     1.992039499335    -2.183513936155
H     -1.698068319941     2.733099481464    -2.183976609665
H     -0.944916600534     1.212769591926    -2.936504473115
C      0.233879699753     2.130033646308    -1.397947166087
H      1.055536048070     1.439611508793    -1.516349466996
C      0.509972596084     3.295623069721    -0.538426508111
O     -0.278402798155     4.279085030742    -0.538513074423
O      1.622330403824     3.248743201947     0.317235739758
C      1.785190058563     4.370941859084     1.195420093192
H      2.688218071347     4.217547821549     1.824599820500
H      1.920617617894     5.311518554022     0.614739779190
H      0.905186155429     4.476855849920     1.870177116839
Pd    -1.243073679400     0.545411837419    -0.450573270215
C     -0.586154519659    -2.072542686342    -1.360123433313
O     -0.568569682147    -0.781585979553    -1.774483756984
O      0.101494646174    -2.957788954284    -1.902072191233
C     -1.558524823194    -2.373250497596    -0.182063894523
H     -1.021093991853    -3.061301710879     0.486747633354
C     -2.798633178166    -3.069343604741    -0.721918127967
H     -3.439649645400    -3.435448153768     0.102603997442
H     -3.380632968554    -2.357205509345    -1.344235216606
H     -2.509616062959    -3.943132387775    -1.344183257644
N     -1.955706715213    -1.102912572209     0.478765384740
C     -2.918171615784    -0.945493693094     1.431911067684
O     -3.611946272954     0.099476471016     1.571155464805
C     -3.129681594687    -2.024438258714     2.429893230068
H     -4.154730017701    -2.409194423927     2.296589830070
H     -2.382719929728    -2.823833030047     2.326524603153
H     -3.034223895364    -1.568267315584     3.431546195887
N     -1.665358833631     1.882186804902     1.076358714953
C     -2.705558682037     2.769444467750     0.987297018847
C     -2.942793857360     3.658053733837     2.019273634092
C     -2.160094132053     3.637013150170     3.153060783439
C     -1.147823823301     2.714721126998     3.228046484467
C     -0.949960128338     1.829457346469     2.151679198044
H     -3.319616265390     2.793807181381     0.094969673118
H     -3.752777701271     4.362546023685     1.933342290044
H     -2.347543097378     4.327447535998     3.970783609463
H     -0.518790326136     2.625633799766     4.090002103560
O      0.030908132105     0.942525430274     2.341343238897
H      0.063494905689     0.259457167507     1.628007591785

