# STO-3G

title

0 1
C      0.291175849291     2.112563337435    -2.059981543263
C      0.793702777259     1.450856679357    -3.198403040155
C      0.576830426776     1.994238735406    -4.480675947223
C     -0.138212919983     3.200104789494    -4.623283153543
C     -0.631994448618     3.864699822554    -3.482227476409
C     -0.418421735973     3.323339448054    -2.198901295565
H      0.458980389565     1.699199944797    -1.067085546210
H      1.362747371318     0.531468832558    -3.081233038979
H      0.968713466696     1.485086666286    -5.358651237451
H     -0.302228294165     3.621119652489    -5.613016014289
H     -1.175191697935     4.800884840269    -3.591104303859
H     -0.782481136849     3.828825190055    -1.308593325466
C     -2.345962672071     0.920039254714     0.024755393034
H     -2.696613944483     0.243188700310    -0.747202384225
H     -1.921564815828     1.868715874419    -0.288394112048
C     -2.596211760268     0.743703600837     1.381972465596
H     -2.314264188002     1.543405755764     2.047783328612
C     -3.441492432559    -0.295718798514     1.988250725736
O     -3.409172610054    -0.446962549790     3.237366064024
O     -4.245299916331    -1.113469491675     1.173779692117
C     -5.062120440721    -2.072945981952     1.860042694964
H     -5.654883848485    -2.650955389665     1.118486006948
H     -4.434310692946    -2.788174467716     2.438631534699
H     -5.773693458539    -1.564674553152     2.550202225986
Pd    -0.382995206702     0.140770108375     0.916381795525
C      2.150982054642     0.286511944768     2.346308651754
O      1.594554992017    -0.272143779559     1.231036901404
O      3.330626496555     0.122231324349     2.679273309065
C      1.113525604293     1.143562564244     3.130468626862
H      1.686065919325     1.922978452536     3.647999285203
C      0.378820519253     0.327082064790     4.171273039755
H     -0.326355561518     0.980824116435     4.725401388371
H     -0.204099918850    -0.479489816929     3.680993423768
H      1.098558574989    -0.121075387719     4.888023713142
N      0.111670011973     1.650548791157     2.176845875693
C     -0.182294661824     2.936045115001     1.892797212831
O     -0.976340745835     3.292183672626     0.970655554108
C      0.419734535623     4.001772762419     2.729490173021
H      0.145432633236     3.818588014836     3.782091974303
H      1.511230541464     3.995169867164     2.573325634696
H      0.012472462317     4.978031501581     2.406305676768
N     -0.451425552299    -1.490243716609    -0.444847679130
C     -1.563942673860    -2.267552233818    -0.633879333566
C     -1.625208290957    -3.160747618378    -1.683107752631
C     -0.564508479699    -3.298656264189    -2.548047521474
C      0.558569501724    -2.553385046456    -2.316167688762
C      0.593068116237    -1.664254372626    -1.220805980153
H     -2.401203357946    -2.182825807150     0.037256495204
H     -2.515752265392    -3.750842307493    -1.825934359337
H     -0.609130678810    -3.996960387831    -3.379690734428
H      1.433665915794    -2.638729377188    -2.929403584224
O      1.744814909460    -1.054813529855    -1.066141792411
H      1.895312693383    -0.650521645949    -0.111937634214

