# STO-3G

title

0 1
C      0.288515544064     2.463258457790    -1.636967014031
C      0.962293658875     1.592942913623    -2.518493299422
C      0.492656585053     1.427442817065    -3.837339655215
C     -0.644892815172     2.137365977143    -4.274659192750
C     -1.311018757070     3.015869867545    -3.394158709065
C     -0.844779181242     3.179894601881    -2.074452411933
H      0.654399667715     2.617713364983    -0.626005342386
H      1.839706553921     1.048901459651    -2.175440517413
H      1.014937313439     0.759720359330    -4.519821185773
H     -0.998753382013     2.018389647709    -5.296855764444
H     -2.177011893737     3.577149669060    -3.738964655753
H     -1.334521627366     3.859742299411    -1.382483527374
C     -2.538928867318     1.393749339828     0.618655694075
H     -3.060913297033     1.060855755512    -0.270330962573
H     -2.307649841275     2.451867733862     0.708626722964
C     -2.388922232135     0.553161600084     1.725484662272
H     -2.062001831224     0.974446851637     2.664460542422
C     -2.850954642560    -0.842880230752     1.789018746435
O     -2.599427767484    -1.511542293902     2.825291301636
O     -3.464363959449    -1.427698061150     0.667366042813
C     -3.702384251595    -2.839575584783     0.746907404514
H     -4.173056364183    -3.185909126545    -0.198182827425
H     -2.745310032190    -3.394574663967     0.877575787794
H     -4.389393795754    -3.079631171263     1.589722640031
Pd    -0.382110906485     0.630925435901     0.678804960251
C      2.188449595660     0.371600564176     2.061775747474
O      1.555951977713    -0.078797514648     0.936281709868
O      3.338563784301     0.036303437230     2.377082861821
C      1.301257426127     1.316522559366     2.922149935462
H      1.989550878847     2.032509266423     3.388304309456
C      0.602807263004     0.547080999314     4.025212000482
H     -0.030421549018     1.235847024109     4.621122628812
H     -0.041884472916    -0.244610087159     3.589226371662
H      1.351145298490     0.073979891283     4.695583246004
N      0.267910214065     1.943098318599     2.077117977801
C     -0.070771508263     3.248433018147     2.028221984407
O     -0.917954088271     3.735911257275     1.217918724821
C      0.571069983585     4.183733854098     2.984131656951
H      0.381172521951     3.826405094977     4.009993311831
H      1.647475214736     4.238023437603     2.752123687199
H      0.122286851739     5.186371444053     2.854280240262
N     -0.740420747394    -0.847790810289    -0.771057881989
C     -1.533328324174    -0.617632729538    -1.866112625612
C     -1.846892923013    -1.649845263007    -2.727775302476
C     -1.360169686986    -2.918061926928    -2.508054690693
C     -0.529026160139    -3.116919090813    -1.438963298174
C     -0.205608005717    -2.029905688446    -0.599543109697
H     -1.916093977722     0.373596742831    -2.064751000087
H     -2.478298976462    -1.453338693277    -3.578258377670
H     -1.606635293820    -3.734014133749    -3.182056542506
H     -0.074855003272    -4.066556240347    -1.238001822578
O      0.676086659985    -2.305495989282     0.334461515714
H      1.166396524844    -1.455436860735     0.700309685556

