# STO-3G

title

0 1
C     -2.240194377964     0.051998354953     2.131681636492
C     -2.651316915003     1.388254448290     2.315261536835
C     -3.988157810927     1.753700939280     2.057128744332
C     -4.913046990556     0.781025188940     1.623252978948
C     -4.501672086128    -0.557391931845     1.451332902924
C     -3.164622414471    -0.924998630923     1.704718499349
H     -1.218753075417    -0.247688641981     2.352529358530
H     -1.935641822484     2.134562341383     2.654312197326
H     -4.307509075074     2.783897320969     2.202552343168
H     -5.947506169660     1.062276727750     1.435503777263
H     -5.220286494866    -1.310067999983     1.132973344218
H     -2.819965160962    -1.947242984676     1.585301790436
C      0.517712079558    -0.996233743689    -1.807885896853
H      1.446885806332    -1.545658392390    -1.701742719719
H      0.557395493149    -0.083441248086    -2.395687914699
C     -0.706624849226    -1.593184663322    -1.478720471647
H     -1.622306450989    -1.124596740801    -1.796321713154
C     -0.866378255486    -3.002151081959    -1.078620233780
O      0.140753780672    -3.763480553825    -1.056812495294
O     -2.170879449853    -3.519156754840    -0.990545711702
C     -2.271728027191    -4.859174601677    -0.490678807354
H     -3.341476281462    -5.154204904701    -0.441214211613
H     -1.742649265880    -5.574270115059    -1.160488133476
H     -1.845500643185    -4.926189087200     0.536735749816
Pd     0.103352021052    -0.087666327960     0.156920116594
C      2.420756139041     0.734465147897     1.780920796166
O      1.273157323520     1.260908583050     1.255351371884
O      3.268496682931     1.412572674521     2.377921557509
C      2.570026161849    -0.796282453892     1.522335704463
H      2.997026207495    -1.216514522721     2.441673976256
C      3.540394845486    -1.063896287687     0.391383483419
H      3.569599888852    -2.151526236367     0.172301496022
H      3.220851904968    -0.520048322671    -0.518776536487
H      4.558680084774    -0.723003467147     0.674128239259
N      1.264027439295    -1.375109551856     1.171887373250
C      0.639637260805    -2.411234316767     1.771913104206
O     -0.601604448818    -2.635873593187     1.645635016614
C      1.444748185105    -3.356452772928     2.581035907315
H      2.287361086509    -3.708648292280     1.961881871639
H      1.780689156615    -2.845384692647     3.496958446870
H      0.804915951417    -4.215215306343     2.855677399000
N     -0.989065097135     1.488414562694    -0.714182855478
C     -2.323773858685     1.378945143101    -1.009429600964
C     -2.976904394452     2.405695451737    -1.660158665653
C     -2.307624606681     3.560319930444    -1.997245489148
C     -0.989265497217     3.671659599891    -1.645040793146
C     -0.361611926083     2.611805775572    -0.957556446071
H     -2.866670574391     0.478521926450    -0.756018445038
H     -4.023257916742     2.299761607199    -1.895415560227
H     -2.819031606339     4.372196179223    -2.507561010853
H     -0.422183975922     4.561112555798    -1.835284220590
O      0.871230992230     2.859844777601    -0.578083180940
H      1.198085678909     2.261597895805     0.223054035693

