# STO-3G

title

0 1
C     -2.924696730276    -0.693507754378     0.019535017505
C     -4.176932576621    -0.687189631619    -0.637390327210
C     -5.251216489301     0.059599703921    -0.114569312704
C     -5.079820798422     0.798642675641     1.073514988769
C     -3.836448487511     0.790730466268     1.737838307135
C     -2.760608730105     0.044983017974     1.216160177362
H     -2.124957842078    -1.323904277484    -0.366941614699
H     -4.308942358659    -1.275415198497    -1.542514932638
H     -6.211753659018     0.062102792805    -0.624108400080
H     -5.908682247148     1.374385564588     1.479098335607
H     -3.705305179163     1.357456861894     2.656349025350
H     -1.801867446713     0.043024860597     1.728811364851
C     -0.392858772473    -0.458510747179    -2.694396269211
H     -0.765012326602    -1.474446495450    -2.614142779038
H     -1.118323127622     0.328985103942    -2.871754948011
C      0.968937895018    -0.161912564884    -2.745830434826
H      1.271291217156     0.861009526136    -2.924199164043
C      2.053406388300    -1.152660873280    -2.881672620901
O      1.793676719122    -2.378380766054    -3.011380182192
O      3.376871675164    -0.679727787317    -2.930802569947
C      4.383888926840    -1.661064342761    -3.217348233013
H      5.382270904936    -1.172933918776    -3.230524987275
H      4.396581704468    -2.458854700365    -2.441513458573
H      4.210865756444    -2.123688680543    -4.215755440038
Pd     0.338888501189     0.001896176773    -0.552571920335
C      1.517822358478    -0.586475998951     1.989106428637
O      0.757540254442     0.366906950588     1.389022981308
O      1.958686176176    -0.474100109826     3.146637357290
C      1.826488960005    -1.823089674734     1.083421000877
H      1.793377343684    -2.699642590508     1.742337035374
C      3.211594720804    -1.727649311301     0.480632403194
H      3.404470909720    -2.619186823539    -0.149230939744
H      3.285470746302    -0.818354492239    -0.149273494112
H      3.976000012803    -1.679167303087     1.284394259977
N      0.844313325377    -1.867205361436    -0.016984980810
C      0.125882703784    -2.933579960763    -0.424250738409
O     -0.894749401593    -2.861142815064    -1.180831457989
C      0.555854961536    -4.284910469761     0.009354928882
H     -0.063443222145    -5.030682861897    -0.521703996294
H      1.611564230573    -4.417668216853    -0.278487140523
H      0.396293713512    -4.387222295207     1.095222184996
N     -0.033057954576     2.035296136249    -0.797603473474
C      1.029829311706     2.825117795946    -0.443837711183
C      0.954951793694     4.193658974792    -0.608449765840
C     -0.192815423731     4.776442197809    -1.100296014160
C     -1.252303339742     3.963289531662    -1.408385006804
C     -1.136617574301     2.572963245873    -1.209853967380
H      1.941192052418     2.371392913106    -0.071439585929
H      1.799779941130     4.807048327600    -0.340437240552
H     -0.260649718772     5.853645155137    -1.227775223351
H     -2.184197550269     4.353551234487    -1.766705317100
O     -2.245980516235     1.896706788582    -1.489272555540
H     -2.322815892781     0.990046619005    -1.083835019904

