# STO-3G

title

0 1
C     -0.037752432023     2.660697774713    -1.647535719176
C      0.885559418898     1.808343187294    -2.288589408495
C      0.690094431135     1.444651346749    -3.636701821821
C     -0.422245402306     1.938829500684    -4.348012090294
C     -1.338190806241     2.803544454498    -3.712261734967
C     -1.144758892429     3.163643778743    -2.363648907051
H      0.097319937476     2.963636757167    -0.612889652144
H      1.745078146961     1.427052725801    -1.741388070716
H      1.404451770303     0.788065032052    -4.129509090559
H     -0.564720006811     1.665440837232    -5.391624038881
H     -2.184710386755     3.202244601230    -4.267584152516
H     -1.835586098768     3.842543901622    -1.868887521066
C     -2.515188578332     1.439994572853     0.663695684525
H     -3.051188240645     1.126427501618    -0.223707442666
H     -2.272939121249     2.494364479539     0.771307260569
C     -2.358518907226     0.581993615307     1.755434360508
H     -2.012550085265     0.985930399411     2.695341381923
C     -2.834238902967    -0.809977178112     1.806035753048
O     -2.568314539291    -1.498137469891     2.825847702675
O     -3.475605033446    -1.370446134732     0.687598423883
C     -3.725722458636    -2.781166374808     0.749091818885
H     -4.218559570521    -3.107598428354    -0.191760280282
H     -2.771676178280    -3.347219163684     0.851384102828
H     -4.397926149015    -3.028559617697     1.601671890443
Pd    -0.361453658354     0.645965859506     0.686802924306
C      2.243478953994     0.351841360208     1.991623821486
O      1.578469707576    -0.069331463159     0.872289531240
O      3.406495730264     0.018652664725     2.256766005549
C      1.373857383009     1.256031851349     2.908829756833
H      2.070204441085     1.952064438036     3.392600414289
C      0.695239908516     0.438263028099     3.989425715499
H      0.079213422146     1.100970781339     4.631089258959
H      0.035627903676    -0.328087645054     3.530878746184
H      1.455144443537    -0.069797698392     4.620006457618
N      0.324468424302     1.915272357059     2.109356480129
C     -0.023053583194     3.218362465223     2.135043371767
O     -0.893654459343     3.739760884529     1.371483087733
C      0.638305743226     4.111171094435     3.117992219947
H      0.475485494316     3.705493487789     4.130399062281
H      1.708348527943     4.182248363430     2.862098164901
H      0.182235227564     5.116403050645     3.046624395103
N     -0.760753232077    -0.814747849997    -0.778009681397
C     -1.576775404127    -0.574132860822    -1.853964426177
C     -1.915981069793    -1.599086009414    -2.714645259205
C     -1.431481496016    -2.871116417422    -2.514551351497
C     -0.578277136401    -3.081399197578    -1.465513803221
C     -0.229669513110    -2.001484792083    -0.626957161979
H     -1.961452406524     0.418363885190    -2.037192971626
H     -2.565481015714    -1.393477660300    -3.549201958553
H     -1.697498076896    -3.681232269464    -3.188164437427
H     -0.125034652440    -4.034823961033    -1.280908033295
O      0.670814371682    -2.289684760223     0.285367194845
H      1.175019225653    -1.444964490765     0.640651616737

