# STO-3G

title

0 1
C     -1.929340839880     0.057178715886     1.006434205913
C     -1.913671672567     0.083019185750     2.417079182693
C     -1.992610214897    -1.118524236177     3.148808262754
C     -2.092796760238    -2.350738491403     2.469098796187
C     -2.120945764004    -2.377091198711     1.059702860702
C     -2.043090830517    -1.174503216654     0.327599111107
H     -1.882190110347     0.998560839704     0.466503131761
H     -1.848456412044     1.038872065002     2.932520861625
H     -1.990116403544    -1.094199462675     4.236377662018
H     -2.164346397370    -3.279823215299     3.031093675148
H     -2.211253047224    -3.325487854645     0.533666387986
H     -2.063064909894    -1.197056868368    -0.759785798268
C      2.109354145954     2.159097946850    -0.009345066492
H      3.052666081832     1.626955404239    -0.112941779954
H      1.917991945041     2.951478081105    -0.724267374128
C      1.309173449076     2.047358573589     1.132218877670
H      0.428123526085     2.669265257431     1.217769191677
C      1.715182620875     1.349401822251     2.363835134708
O      2.820227116725     0.744994228318     2.409795805400
O      0.849354209812     1.367243936567     3.470278285448
C      1.279887776596     0.623964786932     4.618790632701
H      0.516871461116     0.714692839590     5.421534975257
H      1.396782647336    -0.455172867735     4.370687196232
H      2.244256275123     1.021778336187     5.008879367956
Pd     0.491089650432     0.809833397944    -0.733797283300
C     -0.564328753589     0.778134027695    -3.471876493830
O     -0.103735011688    -0.084060162251    -2.514075475810
O     -0.996057957494     0.403768577479    -4.570992128303
C     -0.446831063825     2.270441360719    -3.056445694448
H     -1.276599061939     2.786880690776    -3.554411818255
C      0.851919843594     2.869741383663    -3.557773612018
H      0.925896927377     3.929067575133    -3.236969147261
H      1.713088418265     2.306416191200    -3.144160544043
H      0.889929547316     2.825250199518    -4.666911759804
N     -0.468450162589     2.385687990067    -1.585799925369
C     -1.190130847967     3.258532732615    -0.853009001400
O     -1.231756070758     3.256843004833     0.416192242898
C     -1.978621188596     4.301155708161    -1.554824495514
H     -2.434490724514     4.962945778632    -0.795234287453
H     -1.298213703723     4.888920872815    -2.192328118505
H     -2.781045761892     3.813788837710    -2.134626644474
N      1.376380237157    -1.008100266281    -0.169184893326
C      1.271609928875    -1.540047510146     1.089823640643
C      1.951923973149    -2.696425977212     1.415610925093
C      2.742741852194    -3.329696543623     0.483777759863
C      2.793315687158    -2.811810129048    -0.782757883829
C      2.052760409579    -1.650423240367    -1.084957754986
H      0.660367887753    -1.053672802373     1.835844483261
H      1.871707394796    -3.091741156923     2.414078828985
H      3.289886297306    -4.233119811986     0.739150741628
H      3.347469742990    -3.282579274878    -1.569566059153
O      2.071078653282    -1.298383412478    -2.355774946101
H      1.217872400039    -0.766780847932    -2.615140922523

