# STO-3G

title

0 1
C     -1.356651609993    -2.120909278273    -1.061323265996
C     -1.896518451895    -2.812311504909     0.043019001947
C     -3.283415022217    -3.056109806775     0.109062904310
C     -4.126840070321    -2.615012588788    -0.931817773765
C     -3.582968347528    -1.933205993764    -2.040823377005
C     -2.197324168243    -1.685535112705    -2.107174434739
H     -0.286257675544    -1.950465864193    -1.135267499493
H     -1.241029336360    -3.151231860962     0.842331059682
H     -3.700550933389    -3.593298469916     0.958623028248
H     -5.195709674407    -2.814177996630    -0.885358826515
H     -4.232706175096    -1.609089864020    -2.851172569134
H     -1.754163198885    -1.171088661581    -2.955319658436
C     -1.044475901673     1.661469237921    -1.255690166163
H     -2.108876060790     1.717214645729    -1.058386809609
H     -0.719276604097     1.180305988260    -2.173992747634
C     -0.131878110235     2.394655254873    -0.490247637764
H      0.886792031719     2.485179987441    -0.834632731505
C     -0.484664695784     3.248210733684     0.657119553082
O     -1.691701925436     3.407857051410     0.979140519973
O      0.558668906588     3.781545732973     1.432163895827
C      0.162304532456     4.433861656295     2.646976945541
H      1.064451211461     4.808865061769     3.176591034194
H     -0.502534609167     5.301644207259     2.433629581005
H     -0.364448076196     3.721619082600     3.323411747363
Pd     0.021509890658     0.245106272421     0.196618722875
C      2.501768925585    -0.941018750227     1.223307250326
O      1.170629959263    -0.876031155285     1.524082335535
O      3.328278957562    -1.552972626859     1.914256709503
C      2.879662329699    -0.129913637984    -0.048740476564
H      3.707714150306    -0.676071446806    -0.517577594408
C      3.377052307216     1.252595755728     0.323005461223
H      3.627130768355     1.821934911404    -0.595578720885
H      2.591814299897     1.801274472935     0.883330746945
H      4.285020546950     1.174682663026     0.957683529577
N      1.699677874752     0.027613911408    -0.919087964957
C      1.633854648973    -0.171418139104    -2.252386978208
O      0.566348829741    -0.088903309681    -2.934135330201
C      2.882955096797    -0.495731658407    -2.984163000932
H      3.618525797514     0.305278621077    -2.801851169568
H      3.242752234036    -1.480708704541    -2.643798156235
H      2.656301919953    -0.548196226411    -4.065630135392
N     -1.555935855299     0.279947985016     1.575449981962
C     -2.867731031713     0.240216580202     1.177402601676
C     -3.880771005661     0.374763544071     2.105330029466
C     -3.590077174961     0.552771864310     3.438718172810
C     -2.276108461809     0.542645813011     3.823170307347
C     -1.270841637086     0.369555342060     2.849184571575
H     -3.117707844733     0.096944746438     0.135353401637
H     -4.905598708042     0.353132461635     1.774370637299
H     -4.384317522670     0.671210930400     4.170745013517
H     -1.981994180546     0.630627610857     4.849378547310
O     -0.050209562213     0.283958925243     3.331190375885
H      0.609561776601    -0.207668550410     2.683164682232

