# STO-3G

title

0 1
C     -3.101358017601    -1.031819348833    -1.065974973361
C     -4.133933861141    -1.689211826647    -0.366459147305
C     -4.108642713845    -3.092153473487    -0.226998215422
C     -3.051233192271    -3.833692293810    -0.791850870392
C     -2.026127306618    -3.174326250581    -1.500016713823
C     -2.048410079149    -1.772276810911    -1.641848921681
H     -3.117513806782     0.048591713724    -1.168128034297
H     -4.953791322501    -1.114385518524     0.062635398893
H     -4.907786953113    -3.600634012150     0.308579042284
H     -3.030491383821    -4.916304573811    -0.687389303286
H     -1.213382441998    -3.748241276094    -1.938930357917
H     -1.265774943877    -1.255088902793    -2.192360433547
C     -1.333040655179     1.896847335001    -0.622389603720
H     -2.208276032405     2.025416819248     0.008864891146
H     -1.413753786614     1.332253916131    -1.545091840081
C     -0.160710991010     2.602699901697    -0.402593317187
H      0.633728669548     2.504938691360    -1.123088738173
C      0.032008562762     3.670666161717     0.592381410527
O     -0.964168093908     4.311878312298     1.030276834453
O      1.344548581488     4.107844403683     0.846481428957
C      1.474892021407     5.193429838960     1.774601239072
H      2.550481591301     5.442482862825     1.901140256763
H      0.950934885069     6.101131505342     1.397492484618
H      1.062356217407     4.913281288379     2.770229498601
Pd     0.080368796856     0.370654064092     0.392203477692
C      2.389538294136    -1.270386006335     0.815088673114
O      1.090175990099    -1.188175009636     1.194759493322
O      3.178361006302    -2.126982595299     1.255504394749
C      2.807009347355    -0.181472272255    -0.228232061077
H      3.562604554753    -0.638635634713    -0.880124215952
C      3.420295887290     1.028247206284     0.443394948233
H      3.715253960747     1.771623762619    -0.325456873903
H      2.677859980696     1.498090575420     1.121585381050
H      4.316078871571     0.730303115284     1.027317639329
N      1.593791760424     0.268982557335    -0.928150041843
C      1.335631529525     0.282024402399    -2.246246724148
O      0.194521426665     0.551417723958    -2.743039688248
C      2.447985901739    -0.002575883450    -3.183902259651
H      3.266553618539     0.708014186875    -2.980298908601
H      2.761986919159    -1.049924760945    -3.043953523568
H      2.082548936342     0.135541037902    -4.218434433837
N     -1.375688996091    -0.021884782663     1.838782200183
C     -1.740230456867    -1.341158157716     1.932390202784
C     -2.680943561378    -1.727313199020     2.869905843072
C     -3.239872344467    -0.802563872396     3.723635535603
C     -2.838138795846     0.506406969226     3.620718555078
C     -1.871992912619     0.842894779419     2.640860926970
H     -1.316244407725    -2.074612895799     1.256951799639
H     -2.969818832595    -2.763978044365     2.923342550367
H     -3.971494742909    -1.106105815009     4.467750104687
H     -3.213800718761     1.253335850975     4.288013659955
O     -1.421744196315     2.112943702163     2.578588696731
H     -2.001658399925     2.797580376185     2.961137958168

