# STO-3G

title

0 1
C      0.571420241849     1.290182514283    -3.325067995700
C      0.014977123976     2.468486238944    -3.862498194748
C      0.163238018231     2.748294976597    -5.235474895891
C      0.863270270135     1.850792231566    -6.065754475403
C      1.416130565616     0.672518685012    -5.524689176509
C      1.270209015274     0.387933407690    -4.153180207863
H      0.470337117312     1.055004576639    -2.268233305452
H     -0.529510992404     3.163800438301    -3.226439361590
H     -0.264338016872     3.656896070579    -5.653336690276
H      0.976711131024     2.067785546196    -7.125589388134
H      1.955778428484    -0.020736518094    -6.165353854749
H      1.693934355664    -0.520837655875    -3.733509743076
C      1.194162984497     1.768615479705     0.182271481921
H      0.688446763096     2.727863543707     0.098153116486
H      1.724500566887     1.416044458208    -0.694063635982
C      1.364388698264     1.114608586703     1.395443677604
H      1.979023741917     0.226398988695     1.430195622118
C      0.958184448804     1.667730838166     2.697952209716
O      1.114440849211     0.966880192830     3.731141320464
O      0.378380035003     2.947831877106     2.761479507496
C      0.000356948318     3.403009378158     4.068134142959
H     -0.452461246273     4.414577094661     3.987681599576
H     -0.754315049392     2.722375296047     4.522945850472
H      0.888741260092     3.469505113361     4.736287902655
Pd    -0.372861108985     0.069939989561     0.253500547112
C      0.604526144757    -1.985349753819    -1.479451310920
O      1.040387743649    -1.028780027419    -0.618472472797
O      1.383031890976    -2.644318661789    -2.192419604136
C     -0.942123467288    -2.175789041194    -1.515038347178
H     -1.099556832386    -3.261794551498    -1.461305855680
C     -1.533645189941    -1.671296969410    -2.816807664737
H     -2.606256090103    -1.940055389967    -2.878416764310
H     -1.450697169552    -0.569490649955    -2.871248531061
H     -1.003597450108    -2.121610222916    -3.682795513804
N     -1.560170124586    -1.434363388258    -0.398435286630
C     -2.600240321524    -1.828839839258     0.371273166448
O     -2.975687794937    -1.232782476468     1.421379676344
C     -3.361141707459    -3.039777722545    -0.029590935080
H     -4.207091334829    -3.164132284168     0.671211345128
H     -3.751943396462    -2.891347295960    -1.047597364519
H     -2.702577784803    -3.920993368938     0.043543631324
N     -1.828564421863     1.352420545359     0.995509663105
C     -2.314855663010     1.269736250021     2.275323630712
C     -3.251499374915     2.186971642176     2.715974089370
C     -3.726194415699     3.164114442342     1.868080762397
C     -3.239639246807     3.205997687240     0.586655806196
C     -2.282539138215     2.254452902699     0.188223663658
H     -1.932651674117     0.515902411721     2.954438837409
H     -3.623957211749     2.115469323241     3.724039702005
H     -4.471936812771     3.878930591145     2.205181076687
H     -3.574980074498     3.930474739925    -0.127479484290
O     -1.889676918447     2.363095735551    -1.086682392502
H     -1.291491570241     1.620646710103    -1.348115034025

