# STO-3G

title

0 1
C     -0.008906606110    -2.702929031496    -0.874697976820
C     -0.341346486295    -2.621164966546    -2.240351880255
C      0.332700777238    -3.426921900059    -3.179995689716
C      1.333884025543    -4.319693102030    -2.748656360896
C      1.648493601160    -4.418128618784    -1.377692288052
C      0.974345326075    -3.614505412372    -0.437589375540
H     -0.509400515278    -2.079000252362    -0.140311833601
H     -1.132148977362    -1.949740200739    -2.569904857456
H      0.073356931226    -3.368607223605    -4.234996143464
H      1.852853450098    -4.945338021717    -3.472096479999
H      2.402508529845    -5.127537238795    -1.042705626997
H      1.180678223036    -3.695992721916     0.626375617450
C     -0.077614794984     1.886178729130     1.521051870696
H      0.951008701764     2.233579196036     1.491208490576
H     -0.650815217954     2.174054646955     2.392458228530
C     -0.687276362170     1.305215261882     0.409141756794
H     -1.750135002392     1.116310974795     0.437071876697
C     -0.060515014114     1.189511190424    -0.920356054089
O      1.144197334133     1.517414417511    -1.081726839738
O     -0.840255058783     0.724724236325    -1.992763358340
C     -0.188007729810     0.702056669951    -3.271691993993
H     -0.894398260421     0.323726336969    -4.041580806991
H      0.134594112368     1.725483613235    -3.570409309172
H      0.699131199983     0.027639936366    -3.252826393293
Pd    -0.000864082380    -0.367321260747     1.814191429325
C     -1.258320037169    -2.829414053361     2.624427555067
O     -0.023618903298    -2.335564570933     2.335128948583
O     -1.491583619420    -4.038172874224     2.791374628339
C     -2.384852023598    -1.729350817943     2.737716894058
H     -3.024308899922    -2.012195354860     3.584321009422
C     -3.245675626549    -1.651978117506     1.498886633539
H     -4.041695111772    -0.894015865008     1.649854328622
H     -2.634687408492    -1.353302538995     0.625726465177
H     -3.714766270161    -2.638189725388     1.298310374591
N     -1.705148615208    -0.435754073300     2.896918456893
C     -1.464762266203     0.177548171731     4.065712412548
O     -0.420069343078     0.896175110953     4.286970145265
C     -2.474587008176     0.095059909794     5.141171154486
H     -3.458315723970     0.356710206394     4.714769082457
H     -2.466285283574    -0.925716631018     5.557069203199
H     -2.207094623698     0.813912893608     5.938184174926
N      2.044996911608    -0.257500653665     1.486970860660
C      2.771349178363    -0.733790332763     0.429243454367
C      4.149937832264    -0.678660169617     0.460307615082
C      4.804905972720    -0.139769496137     1.545221590087
C      4.055525679986     0.338932906356     2.587901337331
C      2.647852112928     0.260256437326     2.527253077320
H      2.266659686287    -1.134735294669    -0.439457417360
H      4.711294117500    -1.053572025752    -0.379101496218
H      5.890101366569    -0.091723707152     1.571671191430
H      4.504900013881     0.769659196240     3.459844251085
O      2.045332740625     0.751076742538     3.590566209695
H      1.011375059604     0.753238931727     3.756053896654

