# STO-3G

title

0 1
C     -0.048175929118    -1.036178904472     1.460627174529
C     -0.826342679552    -1.062684631246     2.633849662945
C     -0.358210360048    -1.756888104179     3.767329161662
C      0.886539855725    -2.415930812754     3.722275741855
C      1.660786757327    -2.384719621248     2.544373280377
C      1.195532892523    -1.696136077885     1.406405160136
H     -0.417166455762    -0.516804805978     0.572013697783
H     -1.781912809771    -0.541919264977     2.670061643509
H     -0.959164329611    -1.781958753890     4.673581236825
H      1.246896440003    -2.954014677260     4.596357324913
H      2.617195896565    -2.901459640515     2.508932109778
H      1.766375785207    -1.681930696922     0.482652283275
C     -0.917410671893     3.088263041502    -0.484299425377
H     -1.882498867517     3.024711455668     0.009231815310
H     -0.919066454147     3.565851147839    -1.458557087472
C      0.273799942860     2.742338835251     0.138763725712
H      1.206648394212     2.929957924082    -0.368661244646
C      0.394007328656     2.339175027624     1.549222080102
O     -0.645846980861     2.085637342292     2.213337254952
O      1.677546300694     2.178517674139     2.095298062950
C      1.731041636041     1.699643731807     3.446500083598
H      2.791615626623     1.623146250915     3.768533681540
H      1.204943909183     2.396406117137     4.137473959434
H      1.277636215737     0.686731236115     3.526040382417
Pd    -0.589028827049     0.924878978823    -1.105434128814
C     -3.217780685658     0.148105008116    -2.393498460047
O     -2.605492806820     1.289758580859    -1.979456931663
O     -4.328758810447     0.114001893795    -2.948320945530
C     -2.400538495367    -1.148782284918    -2.099061866911
H     -2.593572855601    -1.827064657920    -2.940944097787
C     -2.882169559132    -1.809754074425    -0.821627669630
H     -2.280981453103    -2.716205623441    -0.606229439443
H     -2.777498774820    -1.106206630377     0.028917788995
H     -3.949242790438    -2.100132688759    -0.921421511579
N     -0.964843672692    -0.843046777286    -1.947152921525
C      0.099885315380    -1.628745992507    -2.203807290892
O      1.282711656946    -1.339847629152    -1.850777544766
C     -0.122035072961    -2.889697681263    -2.950449913600
H     -0.798032979375    -3.535347116189    -2.367777701430
H     -0.542558887201    -2.634537476775    -3.937219884412
H      0.851535926867    -3.396650113515    -3.083198122027
N      0.795268581277     1.510362178744    -2.640361390614
C      2.139230464958     1.249443453792    -2.661889194127
C      2.894788344174     1.643330889288    -3.748466115696
C      2.304045651446     2.276258546797    -4.820305771636
C      0.953703026793     2.509048123853    -4.777453611231
C      0.211132151698     2.090178376452    -3.652779510035
H      2.617371750959     0.781401140749    -1.809382422708
H      3.953615500879     1.444207032436    -3.754150441212
H      2.894783846516     2.583247426841    -5.679195488725
H      0.433567027843     2.990377992266    -5.581377347629
O     -1.077897706269     2.359991673974    -3.732742199082
H     -1.743867671920     1.969343261596    -3.030143931901

