# STO-3G

title

0 1
C     -0.480533906839     2.184177397542    -1.957136464478
C      0.036355986933     3.463405723944    -2.245769948373
C      0.982060676921     3.627119502542    -3.277648637151
C      1.410259338530     2.510691885598    -4.023813938260
C      0.887359886053     1.232602714619    -3.741121526501
C     -0.059063294572     1.068357171685    -2.709963720240
H     -1.195873892278     2.061583655560    -1.147756080073
H     -0.301658156064     4.327521408946    -1.677150595565
H      1.375555742775     4.615860011670    -3.503399106765
H      2.136405689323     2.636473945775    -4.824054628151
H      1.209968190565     0.371224901805    -4.322336904436
H     -0.451128486987     0.077818208115    -2.489980134804
C      0.085411726325     2.635148980824     1.354313401147
H      0.833390958003     3.028265095631     0.678425388704
H     -0.917737046413     3.043644330060     1.307788163290
C      0.396092129958     1.878667338572     2.483574039002
H     -0.395351530212     1.699706880957     3.195783701872
C      1.756601899114     1.524148839316     2.920902623585
O      1.895660284562     0.786720480145     3.931364973855
O      2.869457037849     2.057061484051     2.244088395587
C      4.150549968290     1.586555102610     2.685113626792
H      4.947322319803     2.059799117070     2.072736516769
H      4.324532751961     1.852456193724     3.752499939202
H      4.228310342880     0.482213995871     2.560796896046
Pd    -0.430030514549     0.454329635869     0.876669231887
C     -2.315804219636    -1.744353298637     0.428324331604
O     -0.989149672135    -1.441983777263     0.358225187303
O     -2.755856977083    -2.897919145382     0.333694848699
C     -3.196180741125    -0.485857118505     0.597054997203
H     -4.076254652971    -0.829831080179     1.154567595417
C     -3.660484943888     0.032175936749    -0.750923041749
H     -4.265941990665     0.951741896475    -0.622391163729
H     -2.784232539718     0.270240703178    -1.384369757439
H     -4.276640180189    -0.736346964017    -1.263911172514
N     -2.442583486840     0.596442249674     1.280961429421
C     -2.996472539171     1.479217011444     2.149009096704
O     -2.372390410125     2.446418311789     2.676990575593
C     -4.423934337352     1.322609816421     2.534768462506
H     -5.053642610016     1.379363916789     1.632880875420
H     -4.538451069190     0.365819434103     3.070778667822
H     -4.697916600873     2.148034510056     3.218770729727
N      1.536107286087    -0.065406671684     0.280895188395
C      2.364370190113     0.789428276102    -0.404418083187
C      3.657857545473     0.415301216267    -0.709208345649
C      4.139846237161    -0.815278032386    -0.329661365621
C      3.291722860612    -1.669229207303     0.319488201309
C      1.961987988947    -1.271482907673     0.575485503918
H      2.017473352224     1.765077529479    -0.708195961160
H      4.293417944808     1.104002194235    -1.240728281035
H      5.160342080396    -1.109883243419    -0.559118860965
H      3.587897259583    -2.659015775942     0.605421430018
O      1.208019518276    -2.210772123934     1.095422431212
H      0.189227247113    -2.067711570453     0.898095854992

