# STO-3G

title

0 1
C     -0.114991083317    -2.140752449541     1.294627554554
C      1.069085279810    -2.765600546943     0.848215236732
C      2.028030976732    -3.201172109812     1.783922661224
C      1.799608960327    -3.023408488130     3.161758550904
C      0.612100713518    -2.405035391140     3.608039466279
C     -0.342582328500    -1.958737687984     2.677168874952
H     -0.915791471297    -1.848251927870     0.610096945343
H      1.255219981638    -2.905545406001    -0.213656829653
H      2.945660091416    -3.671974547789     1.439155226581
H      2.539905700652    -3.363562865383     3.882689719018
H      0.434987908630    -2.272798458151     4.672921332794
H     -1.255190893862    -1.467542721219     2.999827666038
C     -0.913796823386     1.610054159562    -1.784335567677
H     -0.730334473454     2.543569030315    -1.261023091318
H     -0.262278203507     1.402746406344    -2.628694010656
C     -2.098011037711     0.885661258490    -1.590336516608
H     -2.317449659269     0.064399154335    -2.254532517242
C     -3.241245091981     1.347951452505    -0.785012284441
O     -3.216253843620     2.497950348268    -0.264301672738
O     -4.421488752586     0.584747299354    -0.810974990717
C     -5.463223133294     1.027995969018     0.069098987706
H     -6.334213714440     0.343852429628    -0.016795101995
H     -5.113304493067     1.014289738069     1.127067475491
H     -5.798892093326     2.055584440329    -0.198370797245
Pd    -0.151303078924     0.017685003526    -0.443741125028
C      2.036527284430     1.872520921892     0.205483989739
O      1.946976871671     0.699122332545    -0.472772880408
O      2.777444744189     2.817548498905    -0.109551658303
C      1.119389406730     1.870792654480     1.463672073702
H      1.013198049052     2.913293014040     1.792534012917
C      1.770759790672     1.053033782231     2.566613386617
H      1.147977339742     1.049712729126     3.480735974278
H      1.890580982426     0.002275556816     2.226046078690
H      2.768668305100     1.470553310614     2.815539550669
N     -0.179936951569     1.250470709614     1.127941848010
C     -1.319134775831     1.265733729175     1.844321502412
O     -2.254722638976     0.423341624030     1.657570033778
C     -1.527133630472     2.352080658577     2.830386423393
H     -2.544683201186     2.248932621797     3.247701421614
H     -0.783357758212     2.267231414376     3.634671050775
H     -1.447060503067     3.316115900944     2.297680732650
N      0.085793138785    -1.240637690563    -2.088016252424
C     -0.815640304299    -2.238792450464    -2.348402722972
C     -0.667713968268    -3.030479767760    -3.466562605102
C      0.385282155203    -2.833827075563    -4.331745127970
C      1.283700251298    -1.840375359140    -4.047997508312
C      1.115396849266    -1.051094059568    -2.889697229604
H     -1.655054031283    -2.397660278359    -1.681529641882
H     -1.386860212847    -3.809100905880    -3.664154134557
H      0.503302026800    -3.455165691269    -5.215725810898
H      2.130474763683    -1.643460422408    -4.675550959454
O      2.036812525995    -0.151604673702    -2.705212210061
H      2.109738458143     0.360504723487    -1.709992481201

