# STO-3G

title

0 1
C      1.060190701257     1.116710030142    -1.945931499408
C      0.858447831078     2.253200318668    -2.754980958872
C      1.729910862507     2.508298683944    -3.832205024036
C      2.797657496341     1.628466141693    -4.097466455192
C      2.995827644966     0.493391179876    -3.285603465072
C      2.127354499426     0.233532971162    -2.207860693314
H      0.414691985462     0.911166103351    -1.092313414651
H      0.041076560865     2.941143826604    -2.547247810789
H      1.576839574555     3.385014513049    -4.457522414604
H      3.469627627166     1.825590928065    -4.929915707625
H      3.820137186798    -0.185997725512    -3.489187727007
H      2.280123005225    -0.637549991457    -1.576269776070
C     -0.532230248407     0.993753328667     2.690725301950
H      0.166103088836     0.225183713083     3.008369412396
H     -1.467633737994     1.061303023757     3.235768005711
C     -0.157127495003     1.966418161556     1.774599054479
H     -0.839904445938     2.769064150052     1.529125305230
C      1.220832918954     2.166816250509     1.288838778863
O      2.162560503451     1.469227060843     1.747307563629
O      1.461710287408     3.233773660427     0.407461748576
C      2.823229532206     3.401119567110    -0.015307505910
H      2.886206795157     4.249722860120    -0.729572431382
H      3.483637873178     3.622235200965     0.853393459432
H      3.194369218684     2.488651318674    -0.535866006975
Pd    -1.378551831900     0.132073246342     0.781928227994
C      0.196438331348    -2.024122864440    -0.239305867471
O      0.224789340942    -1.034221118236     0.690630250221
O      1.185310475751    -2.737663135238    -0.486697070798
C     -1.168389096922    -2.192068526285    -0.975916421789
H     -1.383468251623    -3.268377562193    -0.931583317935
C     -1.076616138565    -1.784440426672    -2.432757422769
H     -2.010480037309    -2.054731604335    -2.963241372730
H     -0.936577867987    -0.690711795862    -2.515784142104
H     -0.224983435122    -2.300078754763    -2.925180765385
N     -2.192412303073    -1.360705765297    -0.312877057860
C     -3.467588983406    -1.715459094472    -0.025287238520
O     -4.214715750325    -1.094295856379     0.784903890135
C     -4.047467621667    -2.894536745405    -0.716913290950
H     -5.115188307045    -2.967508447820    -0.439945270014
H     -3.963823423456    -2.739902112888    -1.803718663215
H     -3.527275214397    -3.806639752644    -0.381720128897
N     -2.991488872886     1.459932024595     0.705171713392
C     -3.976867778634     1.488784864820     1.658465151156
C     -4.990747510847     2.424371871946     1.571469242352
C     -5.045041899855     3.301133171923     0.509472571021
C     -4.062327966240     3.227657100598    -0.443888454538
C     -3.045815635989     2.264562879987    -0.305384661817
H     -3.938079594977     0.808442715756     2.501381144379
H     -5.755940970610     2.445266312910     2.329820153527
H     -5.848628906504     4.028232716991     0.428025668950
H     -4.049779300713     3.870376789414    -1.301193272364
O     -2.145626369305     2.264635758658    -1.292241135660
H     -1.497078148848     1.525100623937    -1.202859643236

