# STO-3G

title

0 1
C      1.012871684103     1.695552180781    -3.163514995033
C      0.251134905173     2.837408521602    -3.485840217841
C     -0.056967686372     3.125066975079    -4.830977919660
C      0.400999302061     2.273449931097    -5.854389662876
C      1.170564810570     1.136048058203    -5.533703547345
C      1.477622739125     0.846094534339    -4.190775367061
H      1.260688936931     1.449367266472    -2.135640625583
H     -0.096621936236     3.514327440084    -2.706313911192
H     -0.647690572718     4.004732466044    -5.076136054563
H      0.164093340670     2.495801449637    -6.892462607252
H      1.530045798258     0.482122829436    -6.324825769037
H      2.070570206667    -0.028080934282    -3.934874008969
C      0.476680524530     2.596422382479     0.355080009683
H     -0.336501282250     3.309014139363     0.466020436551
H      1.024072791917     2.629218860338    -0.579119357284
C      0.964084446611     1.851507139583     1.423030421027
H      1.841609694168     1.240022194158     1.273055319140
C      0.495963239940     1.962983941323     2.815698376423
O     -0.447036729348     2.747814522349     3.101590890565
O      1.084558154101     1.142133121593     3.791418541238
C      0.543111922321     1.253124007293     5.115316645421
H      1.086723262237     0.561085154067     5.794253195320
H      0.662058144729     2.289028549951     5.506797678145
H     -0.535108006608     0.973895553473     5.126652558989
Pd    -0.443947329063     0.485493187029     0.190256639499
C      1.172995345168    -1.323181228788    -1.324570130849
O      1.283370617095    -0.279525808738    -0.459282752398
O      2.153489641917    -1.797925207976    -1.926049344771
C     -0.278695953981    -1.860743521685    -1.512829362611
H     -0.195324413936    -2.954492020893    -1.455740472004
C     -0.837682397836    -1.494326040907    -2.872633495373
H     -1.837765278794    -1.952162991885    -3.007030363421
H     -0.943958518901    -0.395578810314    -2.957551478979
H     -0.164694292114    -1.859391831038    -3.676903917336
N     -1.150354207952    -1.281206601323    -0.475748043679
C     -2.095429250235    -1.914015475177     0.255599671371
O     -2.645135681354    -1.424052082062     1.284071086718
C     -2.530822535639    -3.267201604704    -0.172976519466
H     -3.369233329517    -3.581713932420     0.475165103654
H     -2.876832670413    -3.209601380386    -1.216852881881
H     -1.693333901614    -3.972984411161    -0.047131937503
N     -2.271154202107     1.363752209692     0.639488391132
C     -2.873347102432     1.250383888855     1.866524379608
C     -4.090760275120     1.865347106755     2.094669848331
C     -4.713941086592     2.577574497611     1.093833911011
C     -4.091169493040     2.667669341703    -0.124471127050
C     -2.849328228247     2.030553316113    -0.306238761186
H     -2.383468419004     0.704479009165     2.664589183408
H     -4.551011194933     1.775359534522     3.064099938424
H     -5.673490947435     3.057065539908     1.267103895241
H     -4.520851652976     3.204411031329    -0.945751790094
O     -2.328432691549     2.186652192109    -1.527166523449
H     -1.473562847711     1.704565471628    -1.644738373469

