# STO-3G

title

0 1
C     -1.032195479660    -2.652621564806     0.806879207836
C     -0.621748503135    -2.823072191252     2.144245403074
C     -0.725531088831    -4.086774849661     2.758537218535
C     -1.237011938345    -5.183142910443     2.035444367703
C     -1.642764130351    -5.015539268566     0.696309149340
C     -1.538998078004    -3.750564292679     0.084042485653
H     -0.946892588304    -1.684073287933     0.324781951405
H     -0.218053416263    -1.980733448338     2.701604149566
H     -0.408319473035    -4.216881247206     3.790690226099
H     -1.314812938357    -6.159118070259     2.509404143257
H     -2.030313440463    -5.863026883441     0.134932500802
H     -1.837377819950    -3.620278649701    -0.954624778263
C     -1.338705682634     0.710052482677     1.161981137448
H     -2.197498006917     0.116944838100     0.870548870876
H     -0.689872689554     0.333419229633     1.941978846856
C     -1.161489960441     2.026081803882     0.750647621006
H     -0.345211362643     2.574545612103     1.193701021328
C     -2.132333092284     2.797247660221    -0.047214680013
O     -3.265139603695     2.307205425161    -0.314828344148
O     -1.759088695911     4.068905022933    -0.515940758571
C     -2.709828064100     4.725899440594    -1.365448924611
H     -2.305311246712     5.713369697760    -1.675395985153
H     -2.901253926696     4.123608333384    -2.282947464629
H     -3.669512861398     4.896828675843    -0.826896718657
Pd     0.154720655034     0.642200542677    -0.596959532155
C      2.654926982291    -0.241129157207    -1.706150497468
O      1.426000134955     0.187101747611    -2.085573922544
O      3.583568049702    -0.433325540411    -2.512182353480
C      2.780051400125    -0.504993917591    -0.180727372810
H      3.822619508852    -0.283878037030     0.080738228856
C      2.500746855676    -1.961300929169     0.134796119719
H      2.529118505563    -2.133242163580     1.229234002498
H      1.495351292271    -2.237018937703    -0.240854674367
H      3.256879387228    -2.610092468753    -0.354874698750
N      1.795942585618     0.327188753442     0.553957772276
C      1.985935451125     0.889683740510     1.766266787780
O      1.112116550246     1.570941944019     2.386305481967
C      3.300293229198     0.718647761647     2.438388748963
H      3.252774466501     1.211334719456     3.426947480953
H      3.493939950527    -0.356618578347     2.576522423174
H      4.078289870600     1.209538557887     1.829199856243
N     -1.234342632830     0.858745467548    -2.135501381527
C     -0.832205162184     1.682651757904    -3.154657844007
C     -1.634110049283     1.838840864663    -4.269344059377
C     -2.817673319673     1.142887324492    -4.382032278753
C     -3.179283997781     0.299388009999    -3.361485263177
C     -2.328868288829     0.193870566880    -2.231955703878
H      0.094787617709     2.238141041951    -3.070076153298
H     -1.313888358332     2.496185470638    -5.060932497666
H     -3.442583292996     1.250865965347    -5.264670059760
H     -4.076435594409    -0.279782881227    -3.418295415760
O     -2.650843720345    -0.680660623574    -1.254002648188
H     -3.578383065610    -0.975774822252    -1.234266924972

