# STO-3G

title

0 1
C     -1.479248621470    -1.760610613771     0.312029116917
C     -1.481188523128    -2.852995227461    -0.581649279827
C     -1.277755700798    -4.160462975300    -0.099688583081
C     -1.074339203379    -4.381224434079     1.278916712502
C     -1.079104641128    -3.292659244412     2.174313906495
C     -1.284209938291    -1.983121015715     1.692525479392
H     -1.662817708775    -0.762053352565    -0.074885125441
H     -1.647217551130    -2.675777455084    -1.641513628719
H     -1.285439823285    -4.999457121002    -0.791984419319
H     -0.927751596981    -5.392300000260     1.653046605139
H     -0.935599018097    -3.462384130701     3.239462918634
H     -1.295313875510    -1.149075497698     2.390686502467
C      1.766725203501     0.475961465306    -2.016463615150
H      2.821506625308     0.595061134192    -1.776367783505
H      1.242035239064     1.371574932159    -2.331635458348
C      1.171166100891    -0.778207396158    -2.180313392257
H      0.150958858433    -0.802896159652    -2.530299110013
C      1.913617717142    -2.049633812066    -2.210062742569
O      3.164433931910    -2.054396175188    -2.055946735200
O      1.199439444035    -3.244929009169    -2.402267338483
C      1.977672490233    -4.449574684730    -2.389430762435
H      1.307792969227    -5.321736212769    -2.547746590347
H      2.734752345020    -4.439364412961    -3.206309230216
H      2.492589809573    -4.577833612578    -1.410457654555
Pd     0.699533600585     0.272688922577    -0.055456237417
C      0.189588223747     2.855240232590     1.234784923311
O      0.896989647362     1.714160478714     1.460024895312
O      0.494796925676     3.959429737358     1.708751198537
C     -1.063805377917     2.603102631091     0.363029680682
H     -1.322215305317     3.571304514683    -0.084745855222
C     -2.218299573283     2.139935149639     1.235001495946
H     -3.125223061540     1.959764114274     0.625864535512
H     -1.943693482580     1.191887683119     1.740357221273
H     -2.449759736522     2.907391561222     2.003607051742
N     -0.789887322752     1.546540417930    -0.643940810425
C     -1.473211167798     1.386356656285    -1.800696113053
O     -1.402431492846     0.351827403240    -2.529904633340
C     -2.324511096233     2.499909044674    -2.293971021051
H     -2.752769928647     2.204588149527    -3.269827474595
H     -3.144169808776     2.678104589608    -1.582289030183
H     -1.693424314140     3.394810844132    -2.431445466795
N      2.163666214560    -0.874100079559     0.872039765857
C      2.090365670513    -2.242244911172     0.891097112904
C      3.092108366868    -2.984294066807     1.482132163356
C      4.180198724691    -2.362006618831     2.051706829571
C      4.216556917085    -0.993296637963     2.057898539772
C      3.158047176118    -0.266393554967     1.473119494087
H      1.258284995082    -2.746451734381     0.420901894990
H      3.028149686753    -4.059152150709     1.474836384288
H      4.979952749624    -2.942184210559     2.503913528373
H      5.015586358245    -0.446214284184     2.516306201853
O      3.240072190715     1.035155544904     1.615647899770
H      2.301289362269     1.524997695996     1.562002677618

