# STO-3G

title

0 1
C     -1.184951033472     1.754634865784    -2.450597001368
C     -0.781815165947     3.057604514034    -2.043743238255
C     -1.587768549223     3.800766256243    -1.174869351625
C     -2.806333242021     3.252000401427    -0.700645890470
C     -3.206470552046     1.960953680871    -1.083785270400
C     -2.408322730884     1.213229685990    -1.975905056773
H     -0.661110918478     1.291492626427    -3.277842720461
H      0.152371176747     3.472382726005    -2.415449398364
H     -1.282035667659     4.797496740853    -0.866356205916
H     -3.433349693676     3.838309632101    -0.032510261819
H     -4.128504715651     1.531105776211    -0.705214748200
H     -2.739652786290     0.227255412435    -2.282937733694
C      1.196368181480    -0.408974570182    -3.088434595763
H      2.151466043713    -0.837016790348    -2.814880381163
H      1.256017781020     0.574817050659    -3.544533897427
C      0.006282532934    -1.171184201220    -3.124398115535
H     -0.873292035971    -0.761302208267    -3.600626379844
C     -0.064547693024    -2.631937331709    -2.937225173966
O      0.978855228641    -3.293213962068    -2.684679970550
O     -1.298851145966    -3.266952863328    -3.144084930242
C     -1.349485154387    -4.663983992926    -2.823732503868
H     -2.376392486855    -5.045727683205    -3.011206314065
H     -0.639511783343    -5.243748393265    -3.455862085793
H     -1.116521341233    -4.831321938718    -1.747628774094
Pd     0.028697058240    -0.041199939432    -1.187235586372
C     -1.462956431896    -2.235592272202     0.182026390070
O     -1.791145895868    -1.034293432657    -0.252656600678
O     -2.223411946053    -3.224519396427     0.338719035781
C      0.056197770429    -2.387082032303     0.611992319293
H      0.310740854431    -3.449747082681     0.506817843873
C      0.216043858958    -1.964522034881     2.061521571904
H      1.252788997420    -2.116717350526     2.413521359510
H     -0.027646581945    -0.888183771961     2.157637684875
H     -0.468584027891    -2.552639972323     2.707872625873
N      0.948380725876    -1.537192394020    -0.213404532808
C      2.269607578303    -1.632644837629    -0.332296986699
O      3.024550378410    -0.709417942890    -0.825230888887
C      2.943411729630    -2.895995368199     0.042119755875
H      4.016500236505    -2.812424742472    -0.208099193221
H      2.833323618787    -3.071052225723     1.120736292375
H      2.497917380963    -3.714958325998    -0.550268173415
N      0.457714241742     1.322144803990     0.396847756727
C     -0.570934074911     1.690796320366     1.220260204620
C     -0.405543314863     2.747219166702     2.093823399526
C      0.782968863478     3.442678677442     2.133030888406
C      1.798600648150     3.047180026067     1.301829440681
C      1.603424091778     1.946370649453     0.438018874790
H     -1.512806764489     1.157397819186     1.184616568938
H     -1.222661441179     3.034620833863     2.733958861412
H      0.913731267469     4.281792280631     2.810849678423
H      2.750619160896     3.538141156793     1.290979356102
O      2.643970438350     1.639788358292    -0.297865143071
H      2.740532422271     0.617407489613    -0.652832856465

