# STO-3G

title

0 1
C     -1.193411989029     1.761560198508    -2.476583198251
C     -0.733473154479     3.046114536297    -2.071174656577
C     -1.496260687981     3.815447057035    -1.186123025909
C     -2.727853451728     3.312875923141    -0.695869917193
C     -3.185321114135     2.040958888303    -1.079456267290
C     -2.431177589660     1.268063074092    -1.987179764159
H     -0.704090729067     1.280568144274    -3.314573942895
H      0.210943633171     3.426071943086    -2.453950278231
H     -1.145613561548     4.796756196568    -0.875956062246
H     -3.319608416173     3.919314018188    -0.013677741968
H     -4.117421900794     1.645951358316    -0.688011276806
H     -2.804365131415     0.297588959936    -2.295387527003
C      1.187430366172    -0.379229720225    -3.084135763632
H      2.149708693343    -0.789366330697    -2.809009294653
H      1.229646059230     0.600300282044    -3.550848092334
C      0.013239526482    -1.173392833129    -3.131486092982
H     -0.870597396071    -0.789784462766    -3.622082268941
C     -0.016374868306    -2.636156046928    -2.944701504817
O      1.048583389399    -3.272062761720    -2.716048990697
O     -1.241759505086    -3.299980808077    -3.111800635121
C     -1.246638406564    -4.701178489641    -2.806637064925
H     -2.269228049195    -5.106988752822    -2.965775749799
H     -0.543603960597    -5.255366605150    -3.468916453945
H     -0.973550442848    -4.874446877683    -1.741327275522
Pd    -0.005288984162    -0.050224956847    -1.214147770398
C     -1.567047619682    -2.134102245922     0.212680515693
O     -1.828481469591    -0.921477830553    -0.230299889529
O     -2.391669924638    -3.055368801218     0.436800696254
C     -0.041181479829    -2.418474102701     0.550533950102
H      0.097109549029    -3.485955005638     0.339401896285
C      0.218342664805    -2.141021646255     2.019937110068
H      1.240404284968    -2.456007571905     2.306164619874
H      0.115145552522    -1.052405955726     2.208264084929
H     -0.510653750908    -2.693285587139     2.649384507931
N      0.883152529478    -1.573176752594    -0.245210025437
C      2.211836154946    -1.630774501824    -0.314006358731
O      2.956672427440    -0.692496968937    -0.791146318255
C      2.948439435401    -2.840318246611     0.117451021584
H      3.544767036853    -3.178268542569    -0.748555321146
H      3.618565307720    -2.547255842793     0.942597629133
H      2.286562236120    -3.659735985386     0.425371152476
N      0.431334707510     1.311795709827     0.399583219508
C     -0.583364996755     1.654792537308     1.252058218401
C     -0.418890009906     2.712575286751     2.125040219101
C      0.753607126904     3.435497885303     2.135480936678
C      1.755714879986     3.065533965672     1.276950041911
C      1.561617966324     1.962506799078     0.416138769160
H     -1.515844161812     1.105729610993     1.240014924912
H     -1.225657357510     2.979598843623     2.786763209048
H      0.882636616904     4.275638965354     2.812346104873
H      2.696075094280     3.577313093088     1.242717507219
O      2.590924760457     1.677131441930    -0.347748465898
H      2.682444300377     0.652659555494    -0.673713790364

