# STO-3G

title

0 1
C     -1.577048803456     2.301543842415    -2.517839672639
C     -1.375586159960     3.688757421127    -2.372529202696
C     -2.410005792017     4.504614341297    -1.872395461763
C     -3.648431224978     3.933048151105    -1.517990602487
C     -3.853808193033     2.547527329426    -1.671697870979
C     -2.820017060917     1.732767280268    -2.174235008193
H     -0.771590904125     1.680162369413    -2.896878958453
H     -0.417882943211     4.130560286121    -2.641923209578
H     -2.250794873829     5.574786894509    -1.761835150113
H     -4.447678718209     4.562059548517    -1.133134462675
H     -4.811834466443     2.106834176901    -1.406325945718
H     -2.992539448855     0.665097397731    -2.297820746433
C      1.207823812081    -0.079452609386    -2.161056177790
H      2.201495491768    -0.504369080281    -2.239541500101
H      1.146977742401     1.002583484048    -2.161370135237
C      0.060837238512    -0.860327253842    -2.250651153304
H     -0.910591343836    -0.391605727548    -2.283863524704
C      0.059247015488    -2.305380194969    -2.547482060216
O      1.132400856749    -2.894492529754    -2.850229615136
O     -1.171019390838    -2.985654745439    -2.537850494842
C     -1.112464800171    -4.387164399397    -2.838794715097
H     -2.136548116651    -4.817136729480    -2.796458015906
H     -0.708030821193    -4.555173389083    -3.863045822989
H     -0.477047416673    -4.924834208087    -2.098789468407
Pd     0.403481670777    -0.513748508535    -0.002999517815
C     -0.574027722415    -2.214168365816     2.059346572116
O     -0.376482531723    -0.893359125767     1.821407574816
O     -1.257967455422    -2.641132540820     3.006241462906
C      0.082155171675    -3.178672390871     0.982735343615
H     -0.731750072872    -3.476385654953     0.305244770183
C      0.649999720724    -4.429693198662     1.620450327295
H      1.067960770574    -5.102047968523     0.846011950460
H      1.417754228018    -4.154519510007     2.370584805429
H     -0.160363371609    -4.978543756692     2.145076753135
N      1.073193778300    -2.396734071840     0.223577455385
C      2.404648029763    -2.342579783621     0.081813539177
O      3.029194535050    -1.236385342115    -0.150463010756
C      3.210037625223    -3.578118407396     0.039080091708
H      4.219382996544    -3.324502608197    -0.332801192948
H      3.295638145898    -3.992212220203     1.052992985926
H      2.730183543459    -4.277479964988    -0.668092122837
N      0.402849090804     1.545442676723     0.282958804837
C     -0.666990494345     2.319780400596     0.638920974596
C     -0.468702519074     3.639489662784     0.991935753591
C      0.797575721087     4.182111676347     0.992912719557
C      1.853614929878     3.375706916792     0.653817835630
C      1.617085365025     2.024790286128     0.324435411272
H     -1.666954200203     1.902189630034     0.622795401667
H     -1.319368419297     4.246539150152     1.253504245566
H      0.956064024992     5.222008016689     1.265216695212
H      2.865137964049     3.729257426980     0.661497811807
O      2.713507722793     1.334426028067     0.064692027747
H      2.723754263543     0.297829936970    -0.019016950576

