# STO-3G

title

0 1
C      1.604596029055    -2.322118842514    -1.149864797137
C      1.554268975852    -2.352736377398    -2.558437197947
C      2.718539381096    -2.638373295144    -3.300731864494
C      3.931443515047    -2.902462808433    -2.632692639794
C      3.976439745973    -2.889760218892    -1.223226591719
C      2.814114269896    -2.601682425714    -0.479846356821
H      0.709983947345    -2.102709454075    -0.572656703397
H      0.611203660150    -2.175703623522    -3.072370308786
H      2.678204763296    -2.668259984434    -4.387678537543
H      4.828411805861    -3.130922123226    -3.204895641158
H      4.908254271861    -3.114932115174    -0.707939822767
H      2.827931687152    -2.585118994914     0.606058370693
C      1.032575479163     1.229674690653    -1.865936918562
H      1.480275941203     2.150909540985    -1.501464353698
H      1.688998952287     0.452983652597    -2.241731214292
C     -0.328413975899     1.103303334138    -2.043211805570
H     -0.738072377014     0.211432555597    -2.488458272271
C     -1.321263173574     2.134399783418    -1.702812805628
O     -1.030402679466     2.998656862443    -0.831915045827
O     -2.625539160608     2.018433169683    -2.210315090873
C     -3.588660457118     2.946194395386    -1.692473759727
H     -4.574298512106     2.754671547774    -2.169224768975
H     -3.708098577948     2.817732728134    -0.592923896383
H     -3.290112282334     3.995294244196    -1.916276626999
Pd     0.241585563945     0.351262931362     0.199029188586
C     -2.443471411907    -0.572456087450     0.710277295956
O     -1.549877077929    -0.447729502241    -0.304560362215
O     -3.590734363814    -1.024758708954     0.553098520548
C     -1.900432602747    -0.081876443647     2.090129150622
H     -2.383769362843    -0.693493025169     2.861262284519
C     -2.274692216678     1.363353240599     2.342747579343
H     -1.927196989562     1.671508383172     3.350920186054
H     -1.802404622458     2.021902766333     1.583369049985
H     -3.377011720193     1.487012945591     2.293266009682
N     -0.416964125888    -0.185175407886     2.081863341222
C      0.283676995906    -1.245017828860     2.624423604026
O      1.397276100695    -1.628057218772     2.194885832444
C     -0.258769840136    -1.889319205518     3.843657368384
H      0.518340586916    -2.558994566696     4.256311825549
H     -0.495191761049    -1.099979613077     4.577547593833
H     -1.144693701747    -2.488653382877     3.574071807287
N      2.094254065497     1.031888251972     0.919964943006
C      3.283349329271     0.750511870758     0.298296431732
C      4.460191881131     1.295542245480     0.772392910470
C      4.459003236137     2.097599275202     1.892169885216
C      3.268834836336     2.312425444712     2.534425242321
C      2.093958453480     1.719683083403     2.027538678866
H      3.304150951094     0.132294187226    -0.588234897396
H      5.385125076882     1.083333029808     0.261997253953
H      5.382592565793     2.526558088254     2.271487022080
H      3.202331727410     2.882821647620     3.438598185613
O      1.020719831204     1.874151222711     2.779416834446
H      0.324411668510     1.122180392908     2.553423867625

