# STO-3G

title

0 1
C      0.263006986581     1.986322201128    -2.351483942947
C      0.489751008140     1.196327095324    -3.495736874682
C      0.093609990880     1.659582196272    -4.766575244892
C     -0.524364794594     2.919657237945    -4.893183463720
C     -0.741351876955     3.715026236905    -3.749360815809
C     -0.350124734959     3.250325177046    -2.478107077391
H      0.569166776863     1.641284016372    -1.366896461674
H      0.990216276478     0.234334384180    -3.401994215803
H      0.273482633171     1.048543892104    -5.648602662808
H     -0.825979733064     3.280914890900    -5.874065966424
H     -1.208111386579     4.692652870169    -3.848685580668
H     -0.504318097548     3.847500259232    -1.584517316027
C     -2.280281896885     1.318811982596     0.002579304692
H     -2.484998843296     2.021301468247     0.797843592783
H     -1.857465533470     1.740917117879    -0.900717808538
C     -2.680028256748    -0.007851548497     0.055865665462
H     -2.607307870155    -0.582361650375    -0.854518902654
C     -3.484841260509    -0.599933836955     1.136850157804
O     -3.797077793363    -1.816355198305     1.051531607089
O     -3.743131821516     0.137725268657     2.305060233107
C     -4.501137229909    -0.535996293443     3.319673368757
H     -4.648969741818     0.148113674716     4.182970841794
H     -5.504020746797    -0.830314029966     2.934920427989
H     -3.962986146776    -1.441062260350     3.682080394129
Pd    -0.470978391446     0.100983364056     0.810290682703
C      1.522780805533     0.250657254018     2.909085586109
O      1.396038001862    -0.154562790627     1.606972175168
O      2.550936355867     0.100808307950     3.579355701362
C      0.207931350050     0.931537536645     3.412181632905
H      0.486632871416     1.640603781022     4.201768048279
C     -0.760934868032    -0.067214462367     4.002076727900
H     -1.678055420628     0.462924526767     4.333262816698
H     -1.043823712995    -0.821236611823     3.240785652618
H     -0.300635346935    -0.578871084628     4.873043544582
N     -0.444431214876     1.544976871231     2.239031062229
C     -0.287233947828     2.833465003045     1.843970760431
O     -0.456461660704     3.236690425052     0.658002008945
C      0.012537884269     3.849756615074     2.881631538874
H     -0.738235323099     3.757949613685     3.684926236394
H      1.039827949081     3.689491568533     3.247705548362
H     -0.055305832003     4.853739970725     2.422625707091
N      0.014320308115    -1.502474891796    -0.515933287271
C     -0.813820247444    -2.545057024928    -0.847613067060
C     -0.456381290513    -3.430462683145    -1.843757829604
C      0.744802275087    -3.297976971013    -2.502016701443
C      1.586781850826    -2.292224254972    -2.113181433592
C      1.197324610120    -1.421888104125    -1.073252245939
H     -1.756651155616    -2.678297091628    -0.334892166459
H     -1.127208617470    -4.233112798286    -2.104581562720
H      1.029837441358    -3.991698885414    -3.288635557153
H      2.558621103167    -2.163194014690    -2.547255514878
O      2.124223012369    -0.556145077566    -0.718912382998
H      2.025989044926    -0.231899130045     0.257477468025

