# STO-3G

title

0 1
C     -1.585486555510    -2.925771210998    -0.111583714249
C     -2.451879443729    -2.865589592423     0.999028438679
C     -2.292238948860    -3.767676341639     2.069442192552
C     -1.263899837855    -4.730729896592     2.030571044087
C     -0.401844463304    -4.795151771003     0.917987116655
C     -0.564534535312    -3.896399817327    -0.154861937217
H     -1.696879779112    -2.233991254464    -0.941981101703
H     -3.252573408032    -2.128867876482     1.031090873092
H     -2.963090829564    -3.721370804143     2.924474755140
H     -1.138030457893    -5.425421366762     2.857996555330
H      0.393528511047    -5.535470874451     0.884141448707
H      0.103436009524    -3.950571689760    -1.010248565443
C     -1.775897395691     0.491203355531     0.150770070975
H     -1.420724320478    -0.012560399919     1.042353789614
H     -2.405600286767    -0.099742836319    -0.508130086789
C     -1.679915282624     1.873745605631    -0.005252233139
H     -2.227740282585     2.351427827631    -0.801186308387
C     -1.185256276022     2.803173049115     1.026218772142
O     -0.777821354577     2.353851803164     2.133367597564
O     -1.418158336683     4.177471858965     0.842338565260
C     -0.843092886416     5.041607755003     1.831489281667
H     -1.072443000742     6.097933993840     1.575067914722
H     -1.264824613373     4.827690271999     2.839695975440
H      0.264350027700     4.923362522725     1.857201449350
Pd     0.018202891154     0.594502082495    -1.171648924688
C      2.004629993730    -1.543521540113    -0.789588671687
O      1.195224541505    -1.023764518708    -1.760421000070
O      2.623869490398    -2.607808423500    -0.929689230668
C      2.060183024086    -0.674460190136     0.506842037556
H      3.128628322866    -0.553866444607     0.733066304941
C      1.409892143673    -1.381526563739     1.675416443081
H      1.480483088498    -0.747667260052     2.582870722886
H      0.340913187771    -1.567481244124     1.459228580423
H      1.912493274553    -2.352582362215     1.867909966152
N      1.376224977579     0.606668861759     0.293366429804
C      1.869196809466     1.848913948170     0.478026533258
O      1.371485042418     2.863919563341    -0.104658498161
C      2.968434985173     2.048258925239     1.449564451538
H      3.121652309954     3.134544563270     1.578876728437
H      2.656189944812     1.600029207717     2.408209470541
H      3.890258321324     1.589508605348     1.056769698669
N     -1.135994611662     0.505307537379    -2.921923880462
C     -1.719585658596     1.630894601268    -3.441098119739
C     -2.547091357069     1.537569975147    -4.541003547096
C     -2.777520076598     0.320770658459    -5.144129197100
C     -2.141898717006    -0.783142408382    -4.641629221777
C     -1.284598066714    -0.646772144825    -3.529987869580
H     -1.539347238669     2.596359879880    -2.984342611846
H     -3.011671389730     2.428094500876    -4.932662840615
H     -3.428401560396     0.242573180410    -6.011091026314
H     -2.244389516857    -1.752364266404    -5.088515636345
O     -0.665632942604    -1.747898513232    -3.177332743220
H      0.190646237082    -1.607412596534    -2.566109774329

