# STO-3G

title

0 1
C      0.302493803878     2.547503894045    -1.716205806118
C      1.074563968494     1.893701832629    -2.698093829495
C      0.717311574847     2.000136546539    -4.057979976080
C     -0.405858101393     2.765946168590    -4.433628022350
C     -1.169261829737     3.429752645192    -3.449905806553
C     -0.815708874324     3.321192564211    -2.090004247205
H      0.573743482958     2.491659776642    -0.665682640892
H      1.941649451286     1.306664006892    -2.402487279702
H      1.315825144918     1.500740143880    -4.817492289375
H     -0.673163675103     2.857743021271    -5.484547542819
H     -2.022946594720     4.037447427713    -3.743274422240
H     -1.378820041519     3.831068862756    -1.312988769153
C     -2.635349236546     1.102131804144     0.178428389834
H     -2.606173272774     2.044935538045     0.710502383202
H     -2.839774587130     1.177596544102    -0.879542893805
C     -2.639191765958    -0.128951072717     0.839434922169
H     -2.754973973073    -1.045892760747     0.276277239084
C     -2.800454008053    -0.289246487494     2.296789232021
O     -2.947466026464     0.717783413085     3.040151679835
O     -2.852078927910    -1.593473155704     2.818850151677
C     -3.159696106701    -1.700765785068     4.216335820015
H     -3.175616938473    -2.773000812851     4.508801214194
H     -2.393094070638    -1.183498388072     4.835429530586
H     -4.162160495017    -1.266977373647     4.434259788730
Pd    -0.483896647822     0.333790935340     0.283976292955
C      1.992391807731    -0.071568832430     1.805308535971
O      1.449707338757    -0.353899100686     0.581658290321
O      3.128358681195    -0.431102760988     2.142909044755
C      1.019994906544     0.701709427254     2.742554923192
H      1.646902963125     1.392245862973     3.319568663321
C      0.344743100497    -0.245405384638     3.711317113001
H     -0.381095205920     0.313983917137     4.336294242096
H     -0.191939145812    -1.036873177971     3.151302300831
H      1.100679461059    -0.720338252810     4.371472689587
N     -0.016517233396     1.380454518061     1.941768575985
C     -0.399870156616     2.673060378939     2.050032536270
O     -1.079452872640     3.287548077387     1.171286132778
C     -0.033095663272     3.422662857900     3.276563929252
H     -0.378526357972     2.846122809296     4.151113340404
H      1.055326127719     3.589718815359     3.281744194937
H     -0.549148769769     4.400530609016     3.257267147524
N     -0.648268174832    -0.868141147209    -1.450836816452
C     -1.311851709965    -0.464966646847    -2.582002317765
C     -1.491243349716    -1.341341744575    -3.633015164841
C     -0.987141522655    -2.620628690375    -3.573514765862
C     -0.274716703069    -2.984168075931    -2.463089131868
C     -0.088063143172    -2.051784427713    -1.421182295361
H     -1.705925764757     0.537725701301    -2.659472444496
H     -2.024467586111    -1.012455980525    -4.509951601869
H     -1.125548802337    -3.313759839758    -4.399086416008
H      0.188756185978    -3.946522440102    -2.373213217652
O      0.699304250675    -2.464359536813    -0.453494150647
H      1.130622298085    -1.677312627877     0.086833500978

