# STO-3G

title

0 1
C      2.481254454711     0.217684221968     2.768859749501
C      2.018831664991    -0.682533080213     3.751045677056
C      2.937384505189    -1.282200299479     4.633991120537
C      4.312037463969    -0.986633941098     4.533859347266
C      4.771144222548    -0.088908386904     3.550140139050
C      3.855613028705     0.514285520822     2.665057780095
H      1.755640308137     0.672508638758     2.098389987924
H      0.958357432622    -0.908448464517     3.824197191944
H      2.583081528171    -1.975151586687     5.393361118904
H      5.019521336199    -1.451798399135     5.216754184322
H      5.831822353489     0.138705084306     3.471801148247
H      4.217861031954     1.205222781383     1.905896453785
C      0.808724917423     3.093207139853     1.158378752856
H      1.603544053375     3.602009478458     0.618596746327
H      1.091977995700     2.578139702259     2.068976295574
C     -0.535668414785     3.277391890534     0.856224684147
H     -1.276474896325     2.823675743126     1.497817416780
C     -1.056797484050     4.205981250131    -0.161970451477
O     -0.259311240051     4.881853051340    -0.864835144968
O     -2.444953083095     4.271318869827    -0.364985411909
C     -2.886418522962     5.150829477131    -1.408889762992
H     -3.995596113451     5.118436451072    -1.472681667107
H     -2.580920295027     6.200934936814    -1.198111158656
H     -2.473219333621     4.835056566525    -2.393811836228
Pd     0.137476082617     1.275376639237    -0.102206505827
C     -0.823040375341    -0.862296042955     1.540369114925
O     -0.764944351184     0.495471905868     1.495814379018
O     -1.240312671633    -1.478045085976     2.537840841448
C     -0.312560463902    -1.580526950691     0.253384886785
H     -1.070095809145    -2.343178600400     0.027511601337
C      1.011282184345    -2.278749617362     0.492586360742
H      1.295355645357    -2.870808600883    -0.399589098332
H      1.807393988181    -1.534291403175     0.682032114808
H      0.935075824624    -2.961439862829     1.365316466611
N     -0.137096979360    -0.589532475381    -0.824839889854
C     -0.473958626715    -0.723079562078    -2.128467659452
O     -0.523523957434     0.236082234675    -2.951514922041
C     -0.798384480571    -2.078578285586    -2.640101581520
H     -0.955305080785    -2.007099211696    -3.732045679936
H      0.055040096675    -2.743889246173    -2.437301808540
H     -1.728260213650    -2.432345277992    -2.165413980934
N      1.293388668015     2.025418314691    -1.659392918272
C      0.762462248215     2.657585486956    -2.754619318829
C      1.600958526288     3.152280332872    -3.736906979042
C      2.966335586352     2.999948886610    -3.634116032094
C      3.467296239443     2.352265709790    -2.534034295763
C      2.573289586067     1.871528665636    -1.559549158001
H     -0.309628907702     2.794701956075    -2.836708815920
H      1.173839952177     3.655128149281    -4.588024247031
H      3.628346095745     3.383099468267    -4.405878862266
H      4.517444349599     2.194965503684    -2.394139547528
O      3.160162244335     1.251167978814    -0.529463760551
H      2.495179309953     0.873284801757     0.096597844413

