# STO-3G

title

0 1
C      2.270739479004    -0.483090795255     0.187464533914
C      2.960628416200    -1.124927038313    -0.861372360781
C      4.367475061132    -1.062824469227    -0.906024221605
C      5.079451744831    -0.367917892161     0.092643422011
C      4.385808703576     0.265386973050     1.143113731472
C      2.978984519573     0.205616853689     1.191879365809
H      1.184290319502    -0.522367490730     0.216326235602
H      2.407282412585    -1.670509279427    -1.621096469445
H      4.904046264641    -1.558957775834    -1.711195117723
H      6.165688628759    -0.324549147273     0.055693880930
H      4.934093240997     0.796281642617     1.917873853477
H      2.438044947049     0.688416497945     2.003633596193
C     -1.003519621181     1.903574525120    -2.097606125193
H     -1.765147116140     2.678200507598    -2.088958106129
H     -1.071392828448     1.142948048735    -2.867463498909
C      0.141297681347     1.979939076654    -1.310887786551
H      0.932182326104     1.256017385765    -1.439474059365
C      0.468189784078     3.116607765756    -0.430563988013
O     -0.284260923541     4.128479547749    -0.410482281949
O      1.544581438058     2.989278653107     0.460801147042
C      1.746002482404     4.083390386535     1.365448176327
H      2.621129740012     3.865271524297     2.014911431347
H      1.952834889142     5.024936247210     0.807941316471
H      0.855015263281     4.226469130409     2.018171206438
Pd    -1.335968844610     0.389549959848    -0.408365203650
C     -0.479679259754    -2.127033165928    -1.443214024005
O     -0.618565394925    -0.821701533027    -1.806485495640
O      0.254630734120    -2.901382907044    -2.083670492560
C     -1.319956386146    -2.557753482124    -0.217807443000
H     -0.668824665493    -3.118846618048     0.465528215872
C     -2.441693609062    -3.481666029668    -0.670540642777
H     -2.963813165573    -3.923677303198     0.202145480932
H     -3.172497424637    -2.910410020213    -1.278485054644
H     -2.031635081014    -4.315922398319    -1.278387136367
N     -1.920981322593    -1.362119547441     0.440545095180
C     -2.626199316324    -1.565326160659     1.597658423067
O     -2.554366523177    -2.596119814673     2.315766211515
C     -3.651986841767    -0.559160127414     1.935984392943
H     -4.606544959596    -1.099054582849     2.061293097062
H     -3.369098092161    -0.085680545740     2.890270338675
H     -3.756333102798     0.172661532646     1.119459395314
N     -1.719438140866     1.699531377873     1.176969652483
C     -2.533183639292     2.797888415123     1.066469035332
C     -2.675339121664     3.660341955477     2.134478600985
C     -1.987749393532     3.443507469628     3.308456692602
C     -1.181464043641     2.338681664503     3.392695603282
C     -1.086010093413     1.470201017534     2.289344368520
H     -3.063543375118     2.987529191722     0.140825842070
H     -3.309102320611     4.526799972953     2.033752144059
H     -2.085720348069     4.128575897122     4.146648713641
H     -0.629064878218     2.101940687219     4.281071259718
O     -0.312031369734     0.411991553750     2.494037728113
H     -0.410291504713    -0.280619389600     1.786913610088

