# STO-3G

title

0 1
C     -1.956158673812    -1.950712554522     0.108289050174
C     -2.728955129560    -1.885432651183     1.285180398900
C     -2.790690298241    -2.993972270256     2.152780229238
C     -2.079472179639    -4.170186117439     1.841529923314
C     -1.318135885762    -4.240764890115     0.657539675747
C     -1.259981236287    -3.133522064927    -0.211762242871
H     -1.903994541339    -1.096889825918    -0.562342010475
H     -3.289602383183    -0.980930285295     1.517073085533
H     -3.390299882988    -2.943029953338     3.058761301060
H     -2.125748536998    -5.026563925975     2.510411474823
H     -0.777451089756    -5.150809538904     0.408992362373
H     -0.685800774280    -3.197344626779    -1.132350099350
C     -0.301286575221     0.951947813636     1.404555541908
H     -1.022879590113     0.142529868746     1.460067279664
H      0.597017021217     0.838246325833     1.993578542093
C     -0.578925210369     2.172062474656     0.798840550004
H      0.144005937222     2.968111390821     0.891621991362
C     -1.922735617893     2.525223260224     0.310222629695
O     -2.145326468802     3.707786652271    -0.061313550654
O     -2.898463284954     1.519241502596     0.180653868892
C     -4.112340279772     1.903208269175    -0.479018744409
H     -4.796980117796     1.029076344006    -0.527804577007
H     -4.625927662932     2.719334257263     0.077990407554
H     -3.905729524467     2.237651960665    -1.521235226249
Pd     0.620476985449     0.693657473501    -0.677185990576
C      2.149321118538    -1.757726592140    -1.188886344865
O      1.282795185384    -0.904355891507    -1.806938813826
O      2.506446217562    -2.834923121112    -1.687510525009
C      2.609214659732    -1.260315420479     0.211492692529
H      3.697168706482    -1.412418971458     0.246101148231
C      1.974445224101    -2.085219414470     1.312993437628
H      2.355336416945    -1.754514703001     2.300193928001
H      0.873241174573    -1.951375289607     1.296865677051
H      2.212082486055    -3.161275922318     1.175970655645
N      2.216323879417     0.137950255521     0.408257514635
C      2.891599999686     1.142060137546     1.001487073785
O      2.425560725233     2.316348631369     1.118541578882
C      4.233948552080     0.856991737176     1.561474672884
H      4.612845871118     1.778432721039     2.040441893366
H      4.138013233341     0.059203025574     2.315478853931
H      4.908094251005     0.567703512786     0.737265088051
N     -0.657611943073     1.255753726654    -2.263287066700
C     -0.859139248641     2.577481287546    -2.567697957107
C     -1.719319867530     2.930358899439    -3.587624965586
C     -2.366798662686     1.964936674703    -4.325397890538
C     -2.103956425590     0.650733004972    -4.045225936321
C     -1.192661528716     0.329044147611    -3.017656510873
H     -0.360951484331     3.347870182250    -1.990550998817
H     -1.890107832097     3.974583120174    -3.794694548916
H     -3.048810788442     2.239165393382    -5.125855728452
H     -2.531972214610    -0.150719459678    -4.613869530933
O     -0.918667620076    -0.951648162451    -2.904459616136
H      0.013205577757    -1.130816983229    -2.452466290359

