# STO-3G

title

0 1
C     -1.124560944026     0.377504969830     1.580693539507
C     -1.899595293484    -0.703395349983     2.043506381812
C     -2.957500044277    -0.475728226161     2.945322858964
C     -3.241375953076     0.835453763245     3.377948217188
C     -2.468067785868     1.916502519587     2.909406844827
C     -1.407484185680     1.690274537985     2.009636587516
H     -0.314362098166     0.194097038444     0.878214220498
H     -1.678792838105    -1.711428567833     1.698299034558
H     -3.556160463528    -1.309875734258     3.304203002115
H     -4.060185591655     1.013081555968     4.071674623195
H     -2.691198930862     2.928832684280     3.237612204314
H     -0.816965006893     2.525843741693     1.642327183097
C      3.394778650335     1.142635512623     0.987054613471
H      4.327190030094     0.651179075706     0.725233449904
H      3.326332654059     2.208872615323     0.798205729084
C      2.393985471359     0.507668034693     1.712993471183
H      1.538364816034     1.071191733549     2.052352623857
C      2.485989906286    -0.865900733666     2.239804515326
O      3.575274390145    -1.496115798350     2.161971156891
O      1.328787201880    -1.466400513702     2.759800667027
C      1.439822536081    -2.856445040337     3.093372680118
H      0.465570078511    -3.217800563604     3.487334082101
H      1.696511693287    -3.458625052582     2.191643271400
H      2.213220739569    -3.015115588082     3.878803593314
Pd     1.783078601101     0.628809793369    -0.546245741848
C      0.246974626841     3.011298572291    -1.007043417988
O      1.252819578361     2.527708747500    -0.235076067581
O     -0.250168661734     4.137094669783    -0.828557131485
C     -0.241538752455     2.060313735800    -2.149970095839
H     -0.195137034055     2.677196922585    -3.056305033187
C     -1.679420361669     1.630740257247    -1.950942768888
H     -2.001852697721     0.983826465512    -2.791865254699
H     -1.787458897513     1.063611617476    -1.005788629918
H     -2.341950447845     2.521078858224    -1.909072649692
N      0.617358057169     0.848159735268    -2.236507412229
C      1.294433749974     0.479457970366    -3.386075676849
O      2.382501165416    -0.144900039187    -3.379330910356
C      0.641330094839     0.731721689598    -4.694035305828
H     -0.402193576950     0.378383259558    -4.640561741458
H      0.707179336546     1.804705154031    -4.931984527898
H      1.182879366135     0.159826531698    -5.470987871215
N      2.054804252539    -1.412207760005    -0.827566814441
C      3.268535713131    -2.041408507134    -0.739311154065
C      3.338857911536    -3.418557737747    -0.828335212788
C      2.201106125847    -4.166980197302    -1.035529727730
C      1.007688223432    -3.508819714000    -1.179564406459
C      0.987136998532    -2.101397903580    -1.111274835449
H      4.166597556783    -1.464262111479    -0.556850587394
H      4.295228168739    -3.904124499500    -0.725670272849
H      2.252779462649    -5.250131899234    -1.105260195596
H      0.093366332834    -4.023638297805    -1.393999502987
O     -0.183227998606    -1.540711303563    -1.375549659462
H     -0.048413765269    -0.552596590049    -1.669050029071

