# STO-3G

title

0 1
C      0.554132022111     2.357104100923    -2.694296883389
C     -0.108223484200     2.500386913696    -3.931404916800
C      0.290123843762     1.719645102131    -5.034537240946
C      1.350594542950     0.801070726797    -4.900392239702
C      2.011588841507     0.658345731472    -3.663454173693
C      1.614855984293     1.437235091776    -2.559133472093
H      0.263361571905     2.981623608854    -1.854300781990
H     -0.924177130040     3.212692458880    -4.032025883310
H     -0.219805011869     1.828483433530    -5.988976700532
H      1.657583561134     0.197848240659    -5.751737139006
H      2.817769793310    -0.061331281685    -3.551032623272
H      2.116358643886     1.305730797003    -1.603943849927
C      0.048458334480     2.680652495888     0.739010335033
H      0.956558397250     2.559265695688     0.159478587622
H     -0.676747142618     3.401205143928     0.370888722967
C     -0.081164153152     2.115400554835     2.001281265351
H     -0.942231133759     2.351580209109     2.609996951508
C      0.994976530124     1.383900374872     2.693598560930
O      0.742368781161     0.864157413054     3.812273806707
O      2.307205155190     1.439008100445     2.191878962133
C      3.251904586187     0.566033829484     2.824927078081
H      4.242823841824     0.681269658599     2.335924075273
H      3.363272735161     0.814415711311     3.904605655629
H      2.936763441033    -0.496915451833     2.715239953695
Pd    -1.033011179492     0.682127330368     0.450028136127
C      0.760445498531    -1.313211274466    -0.539902011058
O      0.725734405236    -0.221772369543     0.268284094418
O      1.817233070535    -1.916031446183    -0.800393230841
C     -0.624868372234    -1.733845162349    -1.117171520073
H     -0.662838690942    -2.827464164868    -1.023826226162
C     -0.745765803258    -1.371789197871    -2.583231826927
H     -1.706036545452    -1.743346387401    -2.991378402286
H     -0.717158292436    -0.271824560501    -2.703118600935
H      0.089202416856    -1.821352080908    -3.160854528972
N     -1.694592069027    -1.039737328664    -0.373985064984
C     -2.879969003635    -1.551689430931     0.028688170832
O     -3.676957362967    -0.969324971549     0.820198924164
C     -3.286668247378    -2.884245657215    -0.485572606535
H     -4.307367041309    -3.099429853449    -0.119652009222
H     -3.292588250846    -2.850889362524    -1.585892218923
H     -2.595458056893    -3.648200839132    -0.092751084156
N     -2.835123381030     1.718742915272     0.528111715810
C     -3.653540362551     1.641513348195     1.625503776060
C     -4.811994633733     2.394256156123     1.672199713169
C     -5.176528925221     3.184659859720     0.603875861904
C     -4.352274422337     3.216637506664    -0.491872381199
C     -3.177593427896     2.441435525505    -0.487073598400
H     -3.369557949419     1.026459365058     2.472045336283
H     -5.444611956165     2.333801524020     2.542363074936
H     -6.095876892193     3.763631825607     0.628072746438
H     -4.583149373695     3.798439297216    -1.361344427791
O     -2.453300984267     2.534347897313    -1.606446906459
H     -1.672846918763     1.927322867847    -1.615948233990

