# STO-3G

title

0 1
C     -1.999228434391    -2.362135104995     1.582505258532
C     -1.492434327555    -3.140914155365     2.643950852491
C     -1.818326764222    -4.508327282351     2.742642242672
C     -2.656627245830    -5.103030488242     1.778609620641
C     -3.173633660900    -4.325356242735     0.723049098129
C     -2.849229700381    -2.957835109556     0.626437607821
H     -1.758879488028    -1.304755044959     1.501843998733
H     -0.866396002231    -2.684534404709     3.408503764236
H     -1.432515145726    -5.102076268954     3.569089516234
H     -2.912995775563    -6.157711137144     1.855522272714
H     -3.829040989849    -4.777335870003    -0.018034474421
H     -3.249775404305    -2.362089414893    -0.190408154719
C      1.000809610282    -0.669215212141     2.296553033047
H      1.249417365243    -1.718559294924     2.424344887426
H      0.034288783208    -0.340660513480     2.661214168173
C      1.927073221095     0.273766583406     1.868544538150
H      1.658331303196     1.320568485778     1.872645930451
C      3.347213589236    -0.015541025141     1.599630235593
O      3.795216793878    -1.181240454416     1.778251510317
O      4.173760976430     1.021514904943     1.134909663156
C      5.531630259192     0.658260311149     0.848947352486
H      6.084165923514     1.553090457225     0.489871588181
H      6.041154137397     0.280481875344     1.764553537407
H      5.573218042990    -0.121036873758     0.054154753364
Pd     0.498160313824    -0.269128839107     0.104202285096
C     -1.611489604221     1.648594990308     0.077029330778
O     -0.901863886940     0.882300943014     0.960446381469
O     -2.409706700003     2.523233758054     0.452963394197
C     -1.230977294948     1.335216832237    -1.405393040841
H     -0.374303676841     1.989446306683    -1.636475129775
C     -2.338832224151     1.659877736127    -2.388060318175
H     -2.035960023413     1.361922586079    -3.412808532710
H     -3.268571811439     1.124593115319    -2.104831295546
H     -2.546454444725     2.749782793826    -2.376564824601
N     -0.741338116132    -0.065028638712    -1.498596926884
C     -1.389580046492    -1.127887827620    -2.045793849496
O     -2.510151915605    -1.145249726532    -2.625089086772
C     -0.655788661483    -2.404181190341    -1.943295176511
H      0.271601066702    -2.306249921558    -2.528140744969
H     -0.455784676213    -2.604851511305    -0.880922727268
H     -1.281148709233    -3.212385955169    -2.364462263981
N      2.042314305050    -1.286032346181    -0.846996554527
C      2.391005309685    -2.583963694127    -0.578366223896
C      3.342237114830    -3.214383136772    -1.355999805041
C      3.970061780161    -2.540253983436    -2.380552523401
C      3.625652249777    -1.230815170925    -2.607726803846
C      2.633916179419    -0.637444836904    -1.788996750933
H      1.903865416480    -3.119379440182     0.228420714759
H      3.604437905882    -4.238147024577    -1.142024327650
H      4.729445678220    -3.031065244063    -2.984064804299
H      4.109843492296    -0.658483416954    -3.371491937109
O      2.332209862858     0.659743978138    -1.962956700434
H      2.579464685872     1.053818055712    -2.817899611816

