# STO-3G

title

0 1
C     -2.907134557874    -3.212389206354     0.806527159048
C     -3.000187949858    -2.881806331700     2.174045972227
C     -4.261696320887    -2.758686210710     2.789414617001
C     -5.436184957940    -2.967818210484     2.038366953158
C     -5.346580517547    -3.304025239130     0.672701869834
C     -4.083333831081    -3.427589900583     0.059446128734
H     -1.936244794790    -3.316277185949     0.330771330446
H     -2.088184831242    -2.731018713299     2.747508883019
H     -4.329096516411    -2.506351975893     3.845693696353
H     -6.410168840700    -2.874923053127     2.513899051368
H     -6.252128142860    -3.472556149326     0.093912150796
H     -4.013243334904    -3.695437215835    -0.992669659296
C     -1.452963839390    -0.202878895193    -0.095565093175
H     -1.524584337614     0.052358394329     0.956786045685
H     -1.787036660221    -1.194909171603    -0.367019858331
C     -1.176762055187     0.743085198652    -1.079008516696
H     -1.274957019333     0.451415984454    -2.113776869400
C     -0.954722300966     2.179158367040    -0.842329947266
O     -0.757257805784     2.595922598345     0.329289749066
O     -0.735904895939     3.007568294972    -1.955870374603
C     -0.423199724795     4.377827527234    -1.666742662446
H     -0.283334637938     4.933542461620    -2.619188771078
H     -1.250781329492     4.862539149343    -1.100259799050
H      0.520497791871     4.454065899253    -1.079737879499
Pd     0.808195958222    -0.255541069133    -0.540288157025
C      3.109649561086    -0.555367154320    -2.229549239610
O      2.797684279897    -0.369978635410    -0.918789643386
O      4.266661907338    -0.495247286978    -2.678844486516
C      1.862512808802    -0.847484908877    -3.154067164483
H      2.165963109140    -1.603170411730    -3.890525049141
C      1.407713644369     0.390025079109    -3.891564170795
H      0.517551402848     0.149150414942    -4.508438437936
H      1.137384225412     1.185218726880    -3.167255921333
H      2.219940463133     0.759624976410    -4.551930745387
N      0.765251219546    -1.268937206486    -2.274339451213
C      0.374919830192    -2.519631806934    -2.007313857553
O     -0.138982832365    -2.872738728973    -0.879532933295
C      0.472418073289    -3.542404410118    -3.067981885039
H     -0.017263645196    -3.148044072498    -3.974912756753
H      1.537228181799    -3.766779336874    -3.244044487755
H     -0.043722756704    -4.459852553711    -2.728663709135
N      1.053850349889    -0.020547441495     1.505907974972
C      1.575534617124     1.063491261745     2.155206902445
C      1.779483012580     1.011026748171     3.519851988456
C      1.466248079736    -0.127290696380     4.231190571561
C      0.952069183635    -1.201729538624     3.551579342627
C      0.765614110728    -1.114654659366     2.156089512639
H      1.816658803748     1.962163228322     1.599320151414
H      2.186492904166     1.870131833821     4.026562362520
H      1.626537149289    -0.173101294605     5.304972603527
H      0.700323459888    -2.118972505074     4.044497177765
O      0.278061840295    -2.215099172088     1.611793749368
H      0.160864768976    -2.345353063588     0.588487210028

