# STO-3G

title

0 1
C      2.962008561074    -2.508347992097    -0.546013480851
C      3.220924072407    -3.750922226472    -1.160545354659
C      4.538304847328    -4.247155977417    -1.230074178644
C      5.600385715806    -3.503393146325    -0.679856789435
C      5.341581186780    -2.264806550304    -0.059333197500
C      4.026177141402    -1.765229896663     0.009279106851
H      1.944350519037    -2.124791970407    -0.479583266219
H      2.408034276321    -4.349464256622    -1.566385226971
H      4.731366751656    -5.209238095726    -1.700117096434
H      6.616826784327    -3.888642644315    -0.728557551888
H      6.159531442274    -1.691156792090     0.371358318947
H      3.825527537181    -0.800632560080     0.465601838011
C     -0.456714316156    -0.982215156827    -3.506258849999
H     -1.529062633579    -0.809468982514    -3.545258375728
H      0.157237965245    -0.360420263435    -4.147614380390
C      0.074069311854    -2.091748020039    -2.864765219712
H      1.130199432622    -2.310836167348    -2.934254594864
C     -0.756689101407    -3.150443946484    -2.255640352516
O     -1.988506842350    -3.203153924585    -2.519645558943
O     -0.114477709605    -4.194632785999    -1.570597492637
C     -0.981301779160    -5.118937174456    -0.898801381368
H     -0.369856009931    -5.881162162064    -0.370057307332
H     -1.608081231030    -4.591223840843    -0.142802805729
H     -1.642521201320    -5.643797314073    -1.625189160070
Pd     0.235676489184    -0.214217491948    -1.427058057255
C     -1.561575969537    -0.547785696673     0.782413382856
O     -1.136813261551    -1.170399873855    -0.349734571100
O     -2.418719605311    -1.035930388522     1.536582597121
C     -0.875930709220     0.827510683386     1.040320965140
H     -0.722241562341     0.890363110042     2.124800012884
C     -1.762830456263     1.979199351968     0.613107877014
H     -1.236486407240     2.942246753815     0.771005363295
H     -2.019592952145     1.883612923861    -0.459321931109
H     -2.699759070400     1.977605639253     1.209345441859
N      0.377491438850     0.879878369851     0.262654877813
C      1.583862768559     1.320926655470     0.678895620009
O      2.667604268376     1.130213146878     0.051477866826
C      1.657539593084     2.076184018871     1.954430610280
H      0.959993865060     2.927581112842     1.902615929878
H      1.421293112684     1.390790414887     2.784022288611
H      2.689683621435     2.452882274676     2.080853548892
N      1.604481142332     0.903790478250    -2.558245664784
C      2.940449108666     0.609737757948    -2.651680212980
C      3.765997907548     1.402212436035    -3.427579096252
C      3.266751396628     2.511587437295    -4.075180730430
C      1.930404021252     2.791768618482    -3.946625747485
C      1.130068164764     1.947248116712    -3.156244473272
H      3.340570584603    -0.263524833146    -2.158618657709
H      4.812886398800     1.157088207267    -3.499932678719
H      3.915670386564     3.146543565751    -4.672443022290
H      1.476695527774     3.640080930804    -4.418355231021
O     -0.159945745094     2.294661470736    -3.091736077806
H     -0.647712680593     1.676441380657    -2.490135265234

