# STO-3G

title

0 1
C     -0.030333867040    -1.099190578693    -3.692722084690
C      0.645310016900    -2.145312709818    -4.350491447958
C      0.951385448668    -2.032822056409    -5.721286666703
C      0.577886151409    -0.873505972495    -6.430740319013
C     -0.099653845930     0.171713580728    -5.770344365617
C     -0.405740592893     0.061038466680    -4.399403840034
H     -0.274434442206    -1.190530914506    -2.638248584026
H      0.930516051851    -3.036290050203    -3.793845870567
H      1.473856813837    -2.839363738659    -6.230521838514
H      0.812583449262    -0.785948620178    -7.489233804056
H     -0.387492675342     1.065399446775    -6.319234893009
H     -0.926653432179     0.855543922416    -3.872323129621
C      1.503193188368     0.350171240952    -0.750054692167
H      0.955945454250     0.053096504496    -1.633665554241
H      1.890843150780     1.361875446205    -0.755689108115
C      1.903797589117    -0.558260954350     0.224786518267
H      2.574317454273    -0.233008902227     1.006658132290
C      1.718424079270    -2.018609553406     0.137613580999
O      1.181863346143    -2.535822930319    -0.877961041989
O      2.192351451786    -2.812264039680     1.196487045325
C      2.080766115357    -4.231588638431     1.016360644557
H      2.485559871058    -4.750306423464     1.912203339930
H      1.017320433403    -4.535593052399     0.890082304462
H      2.665956293725    -4.564407865458     0.128987356852
Pd     0.008493319638     0.455353355431     1.018823284157
C     -2.279530981312    -0.455507228286     2.503365814647
O     -1.398495873603     0.581612226531     2.468036352127
O     -3.106450241763    -0.621700359719     3.415566571010
C     -2.155467861701    -1.453275315756     1.286102075087
H     -3.173758164739    -1.730834270646     0.984311594228
C     -1.408198488708    -2.708824353321     1.664936337066
H     -1.280894983223    -3.347424174718     0.766174412636
H     -0.410665074316    -2.445164819474     2.068469822102
H     -1.975021782322    -3.270476746673     2.436543942845
N     -1.386698611398    -0.762644362362     0.242194766026
C     -1.886204087088    -0.165169057608    -0.845078647519
O     -1.362993814401     0.886211985299    -1.382198139742
C     -3.052051436143    -0.765573295773    -1.524166773904
H     -3.194376469640    -0.258174014272    -2.496020778929
H     -2.834027752140    -1.834482882863    -1.693543784543
H     -3.949631006395    -0.623271708103    -0.899597186709
N      0.849943800241     2.293675572534     1.471381394437
C      1.456552534047     2.658630691034     2.640832478841
C      1.808742262117     3.976428194570     2.848595141312
C      1.534203251321     4.933384324039     1.895374771554
C      0.898751170537     4.544953124377     0.744427044031
C      0.539452247926     3.191856681474     0.569598847944
H      1.682221774849     1.907963610581     3.389339131995
H      2.294540199024     4.256580396554     3.768825898965
H      1.805845384233     5.973203014495     2.056942858923
H      0.636573584152     5.244805127100    -0.023899767955
O     -0.101529470912     2.950361927493    -0.555067752068
H     -0.567586569978     2.038535961467    -0.803280301378

