# STO-3G

title

0 1
C     -2.041371539153    -1.563454959510     0.100325329563
C     -3.424373772065    -1.495606095221     0.365462368955
C     -4.079545291136    -2.590080990785     0.963723238326
C     -3.351181100763    -3.749172255570     1.295985730877
C     -1.968574009167    -3.815769264672     1.028457164622
C     -1.310262535781    -2.723697955932     0.431085952962
H     -1.521331668421    -0.729644317482    -0.363878841771
H     -3.991852474824    -0.602401897725     0.108685217508
H     -5.146271140801    -2.538048808628     1.168763423807
H     -3.856911485810    -4.594030558879     1.758216603207
H     -1.407140991120    -4.711487887432     1.283003580558
H     -0.244892630688    -2.772450267358     0.222116495227
C     -0.207342664066     1.598614997948    -2.826978846478
H     -0.120137367399     2.629496128034    -3.159076451673
H      0.676454427259     0.973729205943    -2.900696154683
C     -1.427435306027     1.031470810136    -2.490421816005
H     -1.483115428591    -0.026860542072    -2.285820383258
C     -2.725251378210     1.721917938322    -2.593471786021
O     -2.787032118881     2.880883558874    -3.083778831978
O     -3.859043320471     1.091349768313    -2.055519570914
C     -5.072338887949     1.856204608081    -2.082866601143
H     -5.893174332495     1.262071512918    -1.626561083758
H     -4.960144274415     2.798467345994    -1.499067811723
H     -5.361320796737     2.103332755028    -3.129679497633
Pd    -0.193038270270     1.620112529143    -0.539917997879
C      1.503016003149    -0.501293032668     0.369595935326
O      0.945938436603    -0.005461226790    -0.766250465531
O      2.109125107829    -1.587804722948     0.396859569280
C      1.315669875137     0.392759169444     1.636036762099
H      2.315100576545     0.469086429060     2.085428870561
C      0.389476250518    -0.253782081606     2.645646998856
H      0.320197744849     0.375901953111     3.554799899593
H     -0.625194346232    -0.365466092729     2.220074289354
H      0.773207210739    -1.256007576200     2.931206500254
N      0.754179654689     1.697323014352     1.238774318597
C      1.159661845835     2.924771184132     1.645396748645
O      0.877739734618     4.000627553759     1.042417085890
C      1.966994538128     3.024117049069     2.886909688253
H      1.421251400802     2.523083873372     3.702284862754
H      2.955600659176     2.574269397702     2.706282012411
H      2.097533587624     4.093920021223     3.135284920419
N     -1.525748417801     3.163580772820    -0.158227776066
C     -1.303252545965     4.430795901709    -0.631620370559
C     -2.197615097200     5.442637469433    -0.335131706890
C     -3.298922852037     5.193822548270     0.454179910711
C     -3.484588879770     3.920728266955     0.928981747829
C     -2.546917211674     2.924472881209     0.597511018110
H     -0.441538986425     4.631285852566    -1.257557260471
H     -2.018196886285     6.432696482939    -0.719254972371
H     -3.999654982118     5.987897154336     0.697082483414
H     -4.310955598699     3.660819095362     1.558612852200
O     -2.815803253267     1.723450791942     1.115579638829
H     -2.118978460139     1.057534956156     0.904648632669

