# STO-3G

title

0 1
C      1.276936228233    -3.598390352563     1.223811638217
C      0.549426341406    -4.595750308858     0.542932009632
C      0.543256279181    -5.917283962143     1.033326405055
C      1.264991388665    -6.241694217808     2.199582928872
C      1.994606119203    -5.243512916285     2.877224354183
C      2.000823715274    -3.921849711714     2.389154360309
H      1.276717158197    -2.582142833880     0.841574726276
H     -0.004207911565    -4.341347870415    -0.356395416256
H     -0.019362077288    -6.685823104006     0.508186787242
H      1.261279392308    -7.262556895180     2.576005531929
H      2.553956918612    -5.492591316214     3.776474161565
H      2.553039137716    -3.144895605230     2.911705706008
C      0.698011586598     1.858888599704     1.756089860513
H      1.568706431289     2.241543177280     1.233315019590
H      0.865425067946     1.417054036052     2.731068138564
C     -0.600119409044     2.091667364049     1.306508498344
H     -1.425876971963     1.810436673159     1.941965032383
C     -0.957066895009     2.868681797423     0.107912786483
O     -0.067060942645     3.156096624362    -0.735087007601
O     -2.319440798998     3.059234595350    -0.177576389840
C     -2.614480133869     3.724436681404    -1.414267065478
H     -3.715786356005     3.826495745089    -1.525036151486
H     -2.167607879143     4.744557842696    -1.432574656467
H     -2.232491465519     3.138067454013    -2.281039892880
Pd     0.025122572780     0.057848934784     0.482934013503
C     -1.747913458480    -2.068463970087    -0.279752369587
O     -0.562233822832    -1.517943462361    -0.651976014789
O     -2.336000273621    -2.937662827340    -0.946908290045
C     -2.328224030046    -1.513266176637     1.076660238179
H     -2.741519876993    -2.368273494507     1.627484866051
C     -3.432420374913    -0.508502613992     0.843967941485
H     -3.803890624539    -0.131998855628     1.819225765923
H     -3.046885275612     0.347144053876     0.252950009738
H     -4.270895173552    -0.984294758318     0.293516510624
N     -1.238727050621    -0.821441564532     1.773490394066
C     -0.522385660270    -1.241924479838     2.820792525046
O      0.677895845467    -0.835238871386     3.062717962470
C     -1.125808515491    -2.198071234811     3.768804515213
H     -2.100114297169    -1.798523780402     4.097152658773
H     -1.228616404305    -3.171552943515     3.258585718217
H     -0.450376639062    -2.315985601532     4.636272542494
N      1.860131876997     0.265948572713    -0.466554185330
C      2.072147573574     0.567587617716    -1.782762775838
C      3.352652413226     0.523851566808    -2.296613725223
C      4.417319170170     0.172307126501    -1.494823370914
C      4.173082650837    -0.132663914824    -0.180268109623
C      2.851249805973    -0.085514909772     0.309676997036
H      1.237266169769     0.849987241854    -2.413754592345
H      3.514267426809     0.765688201661    -3.333933990147
H      5.426323006980     0.134048088493    -1.896444697945
H      4.955806093004    -0.425606235525     0.490204061322
O      2.739179520664    -0.421446117388     1.580705874766
H      1.830153051406    -0.542473757039     2.089591059846

