# STO-3G

title

0 1
C      2.436647731399     1.750558384969     1.073288842260
C      3.489296270178     1.245039793029     0.278533198691
C      4.815550008067     1.306632470302     0.750845915584
C      5.089287824909     1.887630302737     2.006458404826
C      4.037496035344     2.400619943658     2.796786197961
C      2.709422204211     2.327369572136     2.335023516394
H      1.417467647265     1.779453934467     0.698035256730
H      3.276318202728     0.813352405466    -0.697009792902
H      5.628299826691     0.918856789870     0.140407434387
H      6.116471950443     1.952510667451     2.359857053362
H      4.254771969487     2.862218560196     3.757541523835
H      1.878338217443     2.712398637314     2.919015787606
C      0.287660331307    -0.534270216246     3.631992219459
H     -0.275974819214     0.378335830306     3.778765377974
H      1.221443283983    -0.617321534040     4.175454195145
C     -0.255122599037    -1.666351154541     2.999592232590
H      0.309894259139    -2.588865478719     2.982089032085
C     -1.658255130721    -1.816063133318     2.571681000310
O     -2.497614869487    -0.901140585373     2.791204892504
O     -2.025881987611    -3.001440316330     1.916071683121
C     -3.359162131200    -3.045608250910     1.390138197925
H     -3.521576884293    -4.023676205207     0.887362407305
H     -4.111472414816    -2.941046935352     2.204307070118
H     -3.511682701142    -2.243993350394     0.632756805819
Pd     0.880888777017    -0.511791564581     1.425791442894
C     -0.750931424076    -1.219171851674    -0.907593638575
O      0.523331192754    -1.453736551377    -0.497298468003
O     -1.449952139914    -2.028745927150    -1.537647651978
C     -1.223753769485     0.211483647478    -0.530646756812
H     -2.320615482339     0.205292300827    -0.579580178989
C     -0.681604895680     1.208563086878    -1.542210747831
H     -0.998266454301     2.239525122826    -1.294639444074
H      0.427764158073     1.174893655169    -1.539197678991
H     -1.048736816974     0.957692769844    -2.559670158255
N     -0.710870211420     0.578605855469     0.810538445688
C     -1.169239299576     1.587056422371     1.589300954236
O     -0.519560446433     2.060786363929     2.572735503211
C     -2.524598711282     2.133502801210     1.328761130441
H     -2.558040010665     2.597373302957     0.333335367070
H     -3.244293857768     1.302097010331     1.422827151513
H     -2.750141815917     2.894390448504     2.098420942250
N      2.528728868841    -1.709568974794     1.812009865118
C      3.498481875467    -1.282725381915     2.679743001404
C      4.580660441294    -2.089927810572     2.960917660319
C      4.707785910040    -3.324291932260     2.364828979512
C      3.742256691681    -3.720810230127     1.478805286515
C      2.654462786286    -2.865668866464     1.199094862586
H      3.402427305324    -0.323921051670     3.170122966179
H      5.331428671579    -1.745564400913     3.652940740183
H      5.558722112576    -3.963757288997     2.584087460502
H      3.792522069637    -4.659938697646     0.964491868597
O      1.821743860528    -3.318660060429     0.303252554439
H      1.138308309560    -2.596536533016    -0.148794316924

