# STO-3G

title

0 1
C     -0.372688742511     3.273854874005    -0.647727739390
C      0.058043479790     4.452337156438    -0.005821399365
C      0.233431387558     5.638797030556    -0.746263015633
C     -0.030272879574     5.650882645333    -2.130059930592
C     -0.476355774649     4.476572657223    -2.769675001753
C     -0.649366787100     3.288540065866    -2.032366521907
H     -0.512696649707     2.357513866318    -0.077316581396
H      0.239851150734     4.458650789716     1.066830057335
H      0.565651899968     6.545258437379    -0.244441800012
H      0.101260108962     6.568076983791    -2.700518094273
H     -0.695304432637     4.489002264025    -3.835473011041
H     -0.998347047407     2.377987345092    -2.510352927642
C      2.524799193912    -0.198345152773     1.759865982665
H      2.331393202369    -0.711341357848     2.697325008843
H      3.029896686182    -0.769746613462     0.987952853353
C      2.356653713574     1.176102400359     1.635425604408
H      2.672316964698     1.685387222098     0.735060706374
C      1.995795064481     2.056770371197     2.762453204982
O      1.927143976123     3.296802539034     2.557637359756
O      1.958008014315     1.532332899081     4.066792466699
C      1.424859857353     2.406239105590     5.070696035636
H      1.423876866652     1.882697280058     6.050506355280
H      2.042810151426     3.327504521827     5.166981439449
H      0.372971557070     2.683604177208     4.829040537736
Pd     0.458654125630     0.063225655832     0.827059744697
C     -1.676907909752     0.090853015809     2.737601035239
O     -0.392746531484     0.504160259911     2.564864557378
O     -2.317015286180     0.311666579539     3.778521211556
C     -2.258425980402    -0.697010365775     1.524576051904
H     -3.305091381266    -0.381003665630     1.431055748039
C     -2.225483597827    -2.191084769816     1.778826420741
H     -2.610315323310    -2.738029355850     0.894861041422
H     -1.186528225101    -2.518882858874     1.976999578606
H     -2.855949170046    -2.439978780364     2.658611597622
N     -1.444451891801    -0.403165864699     0.327683743182
C     -1.880132467606    -0.209135456867    -0.936691525142
O     -1.148617794132     0.203267150265    -1.884661724827
C     -3.308894278759    -0.469777882637    -1.241754977573
H     -3.551098419441    -1.506456223801    -0.959790533057
H     -3.923181414034     0.266803319604    -0.699167480899
H     -3.465997149116    -0.338040278124    -2.328616078215
N      1.371293089277    -0.486960862830    -0.968029467893
C      1.650845749498     0.409845804125    -1.965923708373
C      2.277472918718    -0.020995612443    -3.120433145862
C      2.582116466503    -1.354022939530    -3.296295223877
C      2.265195554222    -2.231458108270    -2.290503712378
C      1.636344346295    -1.740457613391    -1.132244704814
H      1.430604236530     1.459242255339    -1.829227488462
H      2.503327407507     0.693618714314    -3.894698298719
H      3.058855883916    -1.700145928397    -4.209444842512
H      2.460959482508    -3.282012934494    -2.365908389402
O      1.346052640679    -2.666204189935    -0.210716216140
H      0.835760046074    -2.254419348288     0.531351001386

