# STO-3G

title

0 1
C      1.037118135425     3.738978430039    -0.933843187096
C      1.667499282065     4.172638354050     0.261239521131
C      1.226889264721     5.317527090012     0.946155938352
C      0.141028802857     6.069652197444     0.452489286281
C     -0.494881677193     5.656930604022    -0.735024760293
C     -0.050875981017     4.509260124517    -1.417646794288
H     -4.043932421263    -0.984925611714     1.467963925823
H      2.497318009240     3.589623540911     0.660799790065
H      1.727507012398     5.621466964681     1.863332376863
H     -0.200701182689     6.956025657821     0.981909324492
H     -1.331518207742     6.230247055446    -1.129973116269
H     -0.549457734201     4.203065134937    -2.336350864341
C      1.514868833225     2.525864736587    -1.660014238762
H      1.142197133462     2.492680916982    -2.688660330364
H      2.606493076939     2.434700605530    -1.612878321160
C     -0.439909267281     1.451288467515     0.335195301380
H     -1.006129368235     2.328573681375     0.056907073599
C      0.058431474587     1.520898407295     1.734645636064
O      1.285113840208     1.274088300791     1.901157515658
O     -0.670810901534     2.247221019102     2.693754943592
C     -0.115100459911     2.246881491128     4.014884812189
H     -0.781635494880     2.819703956178     4.693579578636
H     -0.031246696583     1.205534613644     4.403584736425
H      0.888142593060     2.729401880585     4.022694778824
Pd     0.938633040983     0.680642238841    -0.953622406737
C     -1.226678970717    -0.898990024711     0.212446448973
O     -1.582909647623     0.368041853975     0.347972614346
O     -0.104146161533    -1.258172334530    -0.254775127715
C     -2.281390317141    -1.917968801954     0.678206506816
H     -1.718418495891    -2.764643815708     1.086520733416
C     -3.158122780705    -2.407956409371    -0.454425810979
H     -3.876808034801    -3.158131601617    -0.064594233623
H     -3.725395608862    -1.552283299490    -0.875289513504
H     -2.537956573846    -2.872935118326    -1.247942121259
N     -3.124658127952    -1.328221791743     1.711560093030
C     -2.507880052381    -0.884962757865     2.846528763385
O     -1.273389947901    -0.986932183447     3.033106650253
C     -3.346158547528    -0.229526212536     3.871099865846
H     -3.183740073477    -0.760368020498     4.822964032161
H     -3.003910400497     0.816491895099     3.941992488970
H     -4.410895592533    -0.268576031409     3.583374207494
N      2.416660141556    -0.420656470504    -2.149694524304
C      2.986232428618     0.056807188312    -3.303530263607
C      4.088559938871    -0.569213163717    -3.848300697750
C      4.623633407993    -1.689302199748    -3.251191001905
C      4.021843984249    -2.165286091204    -2.117959612971
C      2.893288322348    -1.497165833551    -1.600748422066
H      2.576673332518     0.931601142464    -3.791792162954
H      4.531926793265    -0.179404845936    -4.750657190188
H      5.491845572987    -2.188165499299    -3.674259546138
H      4.373275708669    -3.042605736898    -1.610552861632
O      2.380266423253    -2.082992310024    -0.521706334131
H      1.485323215983    -1.744745586515    -0.243269182664

