# STO-3G

title

0 1
C     -1.241974632408    -2.339080278437     0.871101691216
C     -2.398292815803    -1.505000248429     0.939562784250
C     -2.889083432572    -1.065830791594     2.200095696412
C     -2.236097296485    -1.453630976633     3.374506449012
C     -1.090674719616    -2.288710212744     3.314490117668
C     -0.599299528783    -2.726866860802     2.081571326194
H     -0.917170123148    -2.754982699458    -0.086308404353
H     -2.972677772332    -1.302644961448     0.036803746064
H     -3.771581678101    -0.432986377338     2.242664492663
H     -2.600549544556    -1.108287102409     4.338538561841
H     -0.586170853023    -2.574219315558     4.233793413351
H      0.282522966344    -3.360545666677     2.039195699212
C      2.240664270282    -1.855712952429    -0.344008982737
H      2.432525831580    -1.215404015644     0.514486362413
H      1.348450574370    -2.472225845473    -0.313765607659
C      3.031805255446    -1.895892378089    -1.440440519128
H      2.765401270898    -2.546759170737    -2.262481870738
C      4.230792034912    -1.070336931054    -1.651715396267
O      4.446636128090    -0.079378073601    -0.902001628104
O      4.981328610752    -1.268600540466    -2.823504660058
C      6.107954622881    -0.398373021365    -3.002116615731
H      6.627585600975    -0.658600347784    -3.949516771024
H      5.782213216804     0.664595127094    -3.065606198652
H      6.833658419871    -0.513444348538    -2.164994159045
Pd    -0.482533149913    -0.182881553450     0.209156011721
C      1.377777711525     1.363364500223     1.718366110439
O      2.136657237371     1.681811263117     2.645281310475
O      0.320809592100     0.520033094331     1.911967690787
C      1.567243585531     1.923543564778     0.254781681790
H      2.629955243627     1.821158903110    -0.005206858927
C      1.166679589039     3.379798365356     0.168866527461
H      1.342232646038     3.759930152068    -0.857132302238
H      0.089829206721     3.483006408407     0.415443140259
H      1.766717917146     3.980776663131     0.884139591937
N      0.699180039303     1.155415808031    -0.617462618447
C      0.640312891528     0.782189711474    -1.866390504033
O     -0.235538078950    -0.157935192513    -2.145553359944
C      1.512770375284     1.350166130532    -2.900874710760
H      1.283238701350     2.424667927579    -2.988612063899
H      2.558955420456     1.198294370479    -2.586955873881
H      1.317042752479     0.831849427842    -3.857393705706
N     -0.102055560249    -3.814116865215    -1.812677219734
C     -0.154843104962    -5.127583469256    -1.425135731980
C      0.221177416037    -6.126897740569    -2.302889680402
C      0.645918743599    -5.815028041378    -3.576566681087
C      0.683461323558    -4.495242086633    -3.942170935019
C      0.285230067159    -3.512572706176    -3.008265486223
H     -0.484953404666    -5.379813226661    -0.424002855547
H      0.178621143659    -7.155691009783    -1.985177966606
H      0.942141176232    -6.595369638337    -4.272511321197
H      0.998677255647    -4.180271095083    -4.916628669180
O      0.376638456083    -2.270832981532    -3.488525925222
H      0.091977589271    -1.503616949768    -2.894059623830

