# STO-3G

title

0 1
C     -0.327221953138     2.544564898384    -1.992226266378
C     -1.189571220046     3.548037361015    -1.504963751259
C     -2.375430488551     3.862426395726    -2.198628763364
C     -2.701352600947     3.174496378584    -3.385187913575
C     -1.837399626532     2.176675410892    -3.879408787332
C     -0.651965921215     1.864554650377    -3.183834887377
H      1.005532064103     1.752327238509     0.856565918827
H     -0.932305195094     4.081520893514    -0.591958430221
H     -3.036313977261     4.640023015786    -1.821769805622
H     -3.615931375927     3.417178301339    -3.921581000104
H     -2.084862286503     1.648629931970    -4.797436088045
H      0.015110825125     1.093403722339    -3.563542670374
C      2.575961523108    -0.186821149521     2.374994478447
H      3.351303008646     0.540521506221     2.603409496316
H      2.790055916900    -0.877799059633     1.564593462901
C      1.378666385567    -0.216243868117     3.001103367619
H      0.625516080362    -0.928137063200     2.688288462449
C      0.969607258584     0.714061299716     4.064153417781
O     -0.222320222357     0.675402523632     4.477888944810
O      1.912087570003     1.590590341806     4.636151074097
C      1.406702964156     2.491027616122     5.630839327166
H      2.235927148462     3.130828009298     6.001408941777
H      0.622414645822     3.153038015848     5.199090567186
H      0.986051844651     1.929438865514     6.495465268083
Pd     0.433299656233    -0.480350187237    -0.258325614701
C     -1.994537597603    -1.856087099864     0.322262267573
O     -0.737512126275    -2.084641886949    -0.124144904282
O     -2.821618819510    -2.756546149788     0.545021422449
C     -2.362624743347    -0.342079908561     0.495951705998
H     -3.043994373318    -0.261406674653     1.352304154149
C     -3.051476262563     0.182739727845    -0.747474796081
H     -3.306810175216     1.254012176562    -0.627990104342
H     -2.376091619210     0.077793979754    -1.620729987008
H     -3.983221283151    -0.390190337543    -0.936902625992
N     -1.114374377095     0.426452751808     0.666009191341
C     -0.926943472422     1.533156858627     1.309252425594
O      0.251972121366     2.161248030339     1.373627073486
C     -2.007577587924     2.179293839455     2.070917375704
H     -2.836444104127     2.418533121814     1.387549468920
H     -2.320050823229     1.483911548596     2.869327716793
H     -1.621171916922     3.105678097370     2.534191116180
N      2.214857241120    -1.059548358669    -1.144654005657
C      2.906651084305    -2.061512151217    -1.757556978665
C      4.179652468042    -1.804562217254    -2.239284183222
C      4.752252517384    -0.550914383750    -2.100723094862
C      4.028916171010     0.441270435124    -1.482735264272
C      2.739388707559     0.133339932638    -1.010657956917
H      2.462465873927    -3.044775463256    -1.862154382876
H      4.729938337774    -2.596756016052    -2.720111782864
H      5.754445839328    -0.355846362315    -2.473074371210
H      4.408917974224     1.430658522574    -1.330658572169
O      1.999837581511     1.043641986568    -0.414059075877
H      0.587507183177     2.293225913075    -1.460740868791

