# STO-3G

title

0 1
C     -0.094936221991     3.384082783718     0.002486265473
C      0.768658325693     4.431710454561     0.441044089827
C      1.034563196806     5.536836581653    -0.377276555266
C      0.457196265576     5.621958566259    -1.667105039893
C     -0.387031043760     4.599593610401    -2.124497769543
C     -0.674710610132     3.482559176114    -1.299109329968
H     -3.836724679234    -0.191853292290     1.504675553174
H      1.203623048858     4.378710098369     1.437301788110
H      1.683281049097     6.331968222822    -0.018668755214
H      0.663001244356     6.483268911053    -2.297894353708
H     -0.847549918157     4.663414139670    -3.106992096752
H     -1.391966275179     2.733523152704    -1.627068074644
C     -0.450264017414     2.206300860863     0.933462914050
H     -0.483594454155     2.530986683267     1.978499071191
H     -1.438074281412     1.823786492966     0.673750993446
C      0.612830744560     1.116991524459     0.695066281350
H      0.239965037519     0.143403620416     0.417971707670
C      1.784582963447     0.991944504985     1.586728303601
O      2.594262390169     0.050811850980     1.381195875604
O      2.155358472532     2.092275683667     2.380764527259
C      3.309894194614     1.902319506926     3.210544822103
H      3.489683383202     2.821713886729     3.808245114452
H      3.152775678472     1.054699378324     3.916226637432
H      4.215540820816     1.705840613072     2.593139236165
Pd     1.186385048255     1.819115484254    -1.166567690962
C     -2.701148279986     0.174893507171    -0.800680335834
O     -1.761000029504     0.435538587998    -1.718682761979
O     -3.749527518588     0.847745834303    -0.683926004426
C     -2.401491722750    -0.979079131417     0.209940638767
H     -1.331824573553    -1.184742979699     0.269568598840
C     -3.116578444983    -2.257687228066    -0.164361919778
H     -2.884941936129    -3.042053438801     0.585579897213
H     -4.212356649710    -2.080893095447    -0.167892544487
H     -2.787398044159    -2.601295833327    -1.166685032293
N     -2.888296731696    -0.552214037977     1.522851539785
C     -2.064072078604    -0.301100245688     2.571995033990
O     -0.812120569411    -0.420643260159     2.555207610909
C     -2.706595534998     0.163485099599     3.821164668537
H     -2.424140925154    -0.542861049650     4.619279175458
H     -2.315073772327     1.169642474582     4.040830899507
H     -3.805456591271     0.191854545819     3.713328088336
N      2.153151402116     0.089625770490    -1.640895444363
C      3.520243277226     0.041411598717    -1.685232034842
C      4.163737792584    -1.142587820035    -1.970542770116
C      3.446330999455    -2.297059035600    -2.185267415198
C      2.080249750738    -2.239776672619    -2.118196553599
C      1.435923935002    -1.015033056298    -1.823092226302
H      4.096586085137     0.942978741070    -1.513830675094
H      5.240377344768    -1.166396718121    -2.004859550734
H      3.953135411794    -3.234797816630    -2.397053439327
H      1.470879667854    -3.109738057599    -2.258292464202
O      0.155096409550    -1.075339825957    -1.749458611614
H     -0.890639653766    -0.194044772711    -1.731488708926

