# STO-3G

title

0 1
C     -0.389231676473     3.418315536087    -0.027621920163
C      0.613698180945     4.418544550014     0.159136139009
C      0.683474611707     5.535305618698    -0.715154471198
C     -0.236643132962     5.662194875971    -1.764900678971
C     -1.232291867489     4.671737293570    -1.960987551214
C     -1.306323871624     3.560123024637    -1.113563319783
H     -3.734343713285     0.040862546490     1.704052133483
H      1.256431379735     4.382000810257     1.037207150401
H      1.442827560829     6.295921652246    -0.552150575037
H     -0.188242252724     6.520715888892    -2.430246725487
H     -1.937174893798     4.769091698856    -2.782609228998
H     -2.047280504099     2.780895839958    -1.273659535430
C     -0.518980724012     2.250201831681     0.965135133032
H     -0.482962129538     2.617034550535     1.995846300565
H     -1.474993294491     1.755541303529     0.798513745923
C      0.629953624472     1.259075574986     0.670315400672
H      0.321523115128     0.332219710537     0.205428024426
C      1.725829041288     1.045981228816     1.631642630203
O      2.241320359723     2.064550469279     2.165744271215
O      2.451665495809    -0.153152552904     1.545881127410
C      3.502900293512    -0.315601933551     2.507040635789
H      3.982355456277    -1.307356506883     2.360130773415
H      4.282139911670     0.469800817232     2.383444829566
H      3.096490661198    -0.278705188003     3.543520152978
Pd     1.422062132780     2.331489704684    -0.906706717417
C     -2.059767485512    -0.603546186316    -0.500213136684
O     -1.076370782333    -1.207805191797    -1.167538849728
O     -2.616694848848     0.476158841441    -0.813839209949
C     -2.417860398475    -1.361691894029     0.806161756454
H     -1.515108310078    -1.872986796545     1.149036477431
C     -3.520351430416    -2.377357905879     0.601599094484
H     -3.719470733853    -2.903301013881     1.558074708516
H     -4.446060083354    -1.857621711458     0.279342318925
H     -3.220813496316    -3.118244521776    -0.167997737165
N     -2.845050037799    -0.424328034535     1.841277325796
C     -1.972761031007     0.065082926376     2.763179281205
O     -0.748802608986    -0.208053718530     2.816679229761
C     -2.555802090859     0.997154732732     3.750742043959
H     -3.357933776175     0.460396582743     4.284813022309
H     -1.763373673645     1.310541461253     4.452122113367
H     -2.963747183938     1.867652544377     3.208157988941
N      2.490887614550     0.730014722287    -1.595936019369
C      3.816187406773     0.506315872639    -1.342972407873
C      4.431073329576    -0.624359531998    -1.836368341147
C      3.721737925581    -1.543608059549    -2.577801497709
C      2.392974091232    -1.309546676145    -2.814691211141
C      1.779198084246    -0.143505449496    -2.297599860630
H      4.381864569604     1.221753117412    -0.757495379675
H      5.475745871202    -0.791443523061    -1.632366443645
H      4.205076449565    -2.437117212035    -2.963959729056
H      1.788157975915    -1.990442602213    -3.378889475194
O      0.522327382682     0.009511902705    -2.530837974412
H     -0.491265984599    -0.663941214749    -1.876528484966

