# STO-3G

title

0 1
C      0.212080139416     3.332842186778     1.426221828944
C      1.483246679590     3.961567450456     1.239124329525
C      1.593059475265     5.140856025743     0.453528434345
C      0.452740463309     5.704304017087    -0.132447951797
C     -0.816015481712     5.101205115970     0.065202652141
C     -0.936908868072     3.932289373066     0.824617168366
H     -3.112804834571    -0.869226151945    -1.014613564237
H      2.351941476727     3.620905876229     1.798182258952
H      2.565402636170     5.612201494209     0.334011588239
H      0.536261335854     6.613325390394    -0.723255965288
H     -1.702730460088     5.554717490886    -0.371195118784
H     -1.901817654601     3.459374993963     0.987662381655
C      0.072184123743     2.090835352554     2.328677675849
H      0.403602146593     2.311286162947     3.351693572503
H     -0.974778845273     1.784741916457     2.353348692007
C      0.901476157171     0.966671456099     1.677733543613
H      0.326253830786     0.076605187231     1.486927950169
C      2.249378678532     0.635702889054     2.171134854948
O      2.384021054947     0.216564708070     3.349745742968
O      3.331662470954     1.202267464026     1.474637408526
C      4.631230879496     0.875783954008     1.986383498704
H      5.410084153243     1.348949187085     1.350783312301
H      4.755241306341     1.252812984062     3.027432357478
H      4.794351502351    -0.226524776009     1.971591628434
Pd     1.229169926653     1.932441790786    -0.115384266195
C     -1.287711879667    -2.039358045894     0.352655344976
O     -0.244879281012    -1.930596406209     1.189135002944
O     -1.249033595180    -2.480302755400    -0.819607129853
C     -2.586554208613    -1.429011179364     0.932513806339
H     -2.366346550576    -0.890349427687     1.854864485361
C     -3.664886028675    -2.459108684506     1.181183751235
H     -4.569796180453    -1.955413839611     1.579093391278
H     -3.925213658463    -2.958569366408     0.224818642231
H     -3.311523394687    -3.213355615542     1.913668883264
N     -3.078044383042    -0.483671084911    -0.076283388423
C     -3.129421942003     0.849976558223     0.139853874985
O     -2.828468136832     1.419089944540     1.221726776896
C     -3.575937913905     1.689955069762    -0.994070348662
H     -4.450374217431     2.267334461494    -0.650332885923
H     -2.746530322142     2.364673618940    -1.257151619953
H     -3.855735855366     1.065438344869    -1.861104079709
N      1.698418685200     0.384288386966    -1.392733850276
C      1.810174753119     0.783742563434    -2.698713094720
C      2.215335203415    -0.104908975292    -3.668778531912
C      2.503341571076    -1.410664789622    -3.346468437218
C      2.390509481950    -1.798873985452    -2.040104432667
C      1.970383700254    -0.872605893759    -1.054091474923
H      1.581386672752     1.808114790354    -2.968679565652
H      2.293851139163     0.223022016866    -4.692357643162
H      2.811092703094    -2.118397041752    -4.111731917724
H      2.586110946045    -2.806233105649    -1.731558769504
O      1.869749604393    -1.334378385346     0.139316365945
H      0.708966964383    -1.872014081304     0.729170975066

