# STO-3G

title

0 1
C     -0.499879345678     2.823981767404     0.130695295240
C     -0.010500060756     4.163918104165     0.149611312148
C     -0.282957538893     5.045952809851    -0.901065447295
C     -1.037853685765     4.612571893424    -2.019879203115
C     -1.519410396160     3.298557740000    -2.067708893310
C     -1.266326307657     2.398573087431    -0.997032397410
H     -3.775681976713     0.269373310034     0.207597852751
H      0.574555959767     4.498985045107     1.004150091826
H      0.088349060481     6.066867203296    -0.859323993636
H     -1.244928246271     5.301878134676    -2.834548140355
H     -2.108067994928     2.957132387900    -2.915458835558
H     -1.728769283123     1.414674481104    -1.012740702060
C     -0.240637517688     1.878164990455     1.318049648787
H     -0.142834097818     2.446982538971     2.247943431556
H     -1.085119213764     1.204225506775     1.447785757835
C      1.012921926995     1.042201396328     0.986333439869
H      0.860082362287    -0.027625279829     1.071162710151
C      2.350918134973     1.451567210809     1.451029997972
O      2.740670617753     2.622349343429     1.200930554433
O      3.256607750058     0.452709164944     1.842017620528
C      4.592099913922     0.888579214613     2.130854167371
H      5.203843924147     0.013706059001     2.440783885103
H      5.066237130122     1.337613696141     1.229164127782
H      4.596954499575     1.628804055843     2.962875444426
Pd     0.974727838098     1.415590576173    -1.043288845741
C     -1.702168487545    -1.206946816206     0.038185345987
O     -0.499363930746    -1.693014278511     0.323951245027
O     -2.074490151006    -0.757559767177    -1.077986593357
C     -2.636960732718    -1.138412877189     1.267742536104
H     -2.041643066760    -1.092713388342     2.182373805594
C     -3.579932487417    -2.318431689178     1.343861025773
H     -4.215212938578    -2.223001214632     2.248684031481
H     -4.234798396469    -2.324222627336     0.447967992711
H     -3.005980479319    -3.266324473806     1.397225128101
N     -3.433014426551     0.082474471073     1.145032756396
C     -3.480586989237     1.023948431980     2.123125037118
O     -2.900035911603     0.942188474662     3.232349824063
C     -4.259548530102     2.233296214782     1.787213051429
H     -3.790466868850     2.704253173388     0.905886442706
H     -5.290566212431     1.915521668109     1.560052880444
H     -4.243368357244     2.922910996872     2.649792478405
N      2.592394012638     0.249904461380    -1.392336231136
C      3.792152340211     0.859635032989    -1.640832571883
C      4.905153020931     0.102994427901    -1.930871609918
C      4.826995563943    -1.270316694933    -1.980011266218
C      3.622086191181    -1.866986497552    -1.723122299112
C      2.487891496872    -1.079204727777    -1.409096789158
H      3.863659541449     1.940921479512    -1.610772887168
H      5.843958934842     0.594179679370    -2.128178473183
H      5.703540585322    -1.868721764630    -2.214059802388
H      3.503444584169    -2.932112753065    -1.737174777134
O      1.420092105729    -1.731398046713    -1.158675335099
H      0.280532251805    -1.673971904098    -0.417278040701

