# STO-3G

title

0 1
C     -0.770978077545    -1.146258394962    -1.591078602872
C     -2.159561110541    -0.905955063304    -1.556085198765
C     -3.056822244571    -1.978502695773    -1.377613453237
C     -2.565340171292    -3.292489363699    -1.234668543810
C     -1.176913392302    -3.534049622267    -1.276356723454
C     -0.280781372326    -2.460757629394    -1.455858272919
H     -0.084400893934    -0.312947380422    -1.715867809267
H     -2.529326437258     0.109088626800    -1.680915739709
H     -4.128591588766    -1.792724115006    -1.361131780487
H     -3.258203999365    -4.120567510719    -1.101931806965
H     -0.797782192246    -4.548414503245    -1.175350999082
H      0.791276239410    -2.637578206107    -1.489293867938
C      3.507206956068     0.609731859933    -0.415785264884
H     -1.894598709533     0.653035153219     1.820935865439
H      3.944045912624     0.888733003644     0.545168672487
C      4.026959269593    -0.347324796836    -1.214767631447
H      4.933165755966    -0.870468710020    -0.932954319593
C      3.395446794485    -0.814227110582    -2.458177058389
O      2.248107361480    -0.395227738294    -2.766564120309
O      4.034419903264    -1.814477448704    -3.210659555015
C      3.330975532110    -2.258240539257    -4.380286853999
H      3.927319378840    -3.041710907992    -4.895430606054
H      2.343511590922    -2.696223519401    -4.107040752746
H      3.174107405608    -1.415464795155    -5.091740861645
Pd     1.761464440133     1.473760154785    -0.730502189870
C     -1.178334220218     2.773728099387    -0.291251045761
O     -0.302855459837     2.142413104888    -1.068888519169
O     -2.082245560553     3.542611209782    -0.682343510333
C     -1.039961875636     2.466863151285     1.235547578579
H     -1.954903034724     2.853764762271     1.696393076192
C      0.139476086470     3.168604442429     1.879712465818
H      0.159189760318     2.935983126203     2.964791313024
H      1.088813036629     2.831349385461     1.424898975895
H      0.043036953872     4.266581021649     1.749301860161
N     -0.991544360010     1.025208752110     1.552106282222
C      0.004049316792     0.135409238617     1.412574536157
O      1.161576120837     0.346091001911     0.944265835228
C     -0.281217387077    -1.224060664221     1.912543218744
H      0.607460348574    -1.861223480976     1.761023709255
H     -0.529101042821    -1.148452355860     2.983937943774
H     -1.135414533789    -1.629934494133     1.340363918351
N      2.460907067567     2.518089456027    -2.379251270244
C      3.785335000677     2.851757517847    -2.495580648461
C      4.281599894219     3.332587897476    -3.689295695402
C      3.454175572518     3.493515947930    -4.776815872484
C      2.130208450768     3.181461178266    -4.635451366182
C      1.651453578675     2.691801395055    -3.399920674907
H      4.451150437724     2.750845811063    -1.647880800030
H      5.326198277306     3.585071857867    -3.767356792504
H      3.839474023651     3.871723376284    -5.719944608059
H      1.428186110029     3.299661824441    -5.436763544010
O      0.360417984945     2.471031424235    -3.381848750807
H     -0.069162576205     2.304730809906    -2.415821884932

