# STO-3G

title

0 1
C      0.899495121161     3.652776999240     0.599843642213
C      2.132986382493     2.960049173215     0.376675687201
C      2.809062273477     3.086300328523    -0.868114902751
C      2.277116562752     3.883002810791    -1.884837606228
C      1.053671119505     4.573320325640    -1.674746190038
C      0.374090606478     4.453620706391    -0.460175640227
H     -1.014507125258    -2.238679353911    -0.632784323067
H      2.650781336515     2.468709986308     1.196845029138
H      3.744805228443     2.553893846623    -1.017177314327
H      2.801452486000     3.979290805694    -2.832540742432
H      0.650877392685     5.206027221876    -2.462162821985
H     -0.556643878332     4.992073575708    -0.298398623679
C      0.242582782741     3.643776899770     1.988797041576
H      0.905407907027     4.131108217786     2.715856687578
H     -0.689222652827     4.212564841702     1.946975660690
C     -0.067043782471     2.163236292510     2.327343052248
H     -1.121782971481     1.958082023308     2.477242631714
C      0.772626850746     1.428377643825     3.304466640083
O      1.967926362814     1.773160790481     3.487190229756
O      0.211115817424     0.346708602249     4.001070569965
C      1.115298967230    -0.410179088586     4.818627951946
H      0.562128672260    -1.236968332112     5.314632814760
H      1.926644734286    -0.858637591473     4.199779799120
H      1.565912042883     0.229750229825     5.611361603825
Pd     0.175412772895     1.452519420108     0.402530649359
C      0.181590702647    -1.602619317639     0.707568878366
O     -0.019186899470    -2.143380230016    -0.526062423407
O      1.306406932261    -1.142018347618     1.022312529665
C     -1.115027551831    -1.539280206899     1.544257337160
H     -1.038685724224    -0.681163711249     2.214218972166
C     -1.333757612870    -2.794881698685     2.353771511298
H     -2.263548611251    -2.689464427711     2.949685822323
H     -1.452273221705    -3.657945360746     1.664888928142
H     -0.476289784219    -2.970264214002     3.035328793941
N     -2.239117449962    -1.435397301531     0.592491740170
C     -2.517321961414    -0.226164639316     0.154573736272
O     -1.904644588168     0.913238574654     0.397334347033
C     -3.680960291897    -0.157216976606    -0.743203979293
H     -4.550344052070    -0.558020857862    -0.194785480868
H     -3.853606100689     0.889603090112    -1.043778025046
H     -3.463896134797    -0.788596003102    -1.623107024926
N      0.467147277033     0.887619232253    -1.672138282594
C     -0.383261025775     1.477711931561    -2.567333376077
C     -0.099605402624     1.440179390401    -3.918349513877
C      1.033880381529     0.801636451119    -4.374840523706
C      1.861483362482     0.210700106665    -3.456661756862
C      1.524573610358     0.266167201248    -2.087783638751
H     -1.270289063583     1.988456435745    -2.211394038671
H     -0.771041547611     1.911560712415    -4.616075496737
H      1.263320773494     0.764168301162    -5.436249784863
H      2.750351680057    -0.315146901179    -3.741192058562
O      2.394307090786    -0.347978828135    -1.293621544467
H      2.075241811181    -0.575131189621    -0.364645583408

