# STO-3G

title

0 1
C      1.237616030256     2.760015982937    -1.174532573241
C      2.377366701726     3.592368266742    -1.288652837526
C      2.478329972531     4.537625846404    -2.330868479493
C      1.438509432280     4.679521370840    -3.269846862721
C      0.295192384001     3.865085288167    -3.158790950272
C      0.197456605662     2.911896143090    -2.124061714731
H     -1.293270301013    -1.489956770114     1.187220359826
H      3.186294732847     3.517514708082    -0.565752163925
H      3.362757354112     5.168777154014    -2.399820567348
H      1.513505571251     5.415709011849    -4.067145052080
H     -0.521251243545     3.969629166766    -3.871556827163
H     -0.700761453547     2.298500976633    -2.061409278110
C      1.410354162974     1.719885762029     2.921691820765
H      0.759355218915     1.758283476554     3.799761175106
H      2.458334809892     1.685294608244     3.220263717831
C      1.139552969563     2.713718344690     1.795656000364
H      1.952761652183     3.425817141156     1.698112461478
C     -0.166786938572     3.388551788134     1.745857323284
O     -0.187931611626     4.646423440037     1.762314682236
O     -1.225160223198     2.662348511548     1.168453386442
C     -2.429931314256     3.405037220460     0.929198903318
H     -3.198657945911     2.738377009851     0.482616814603
H     -2.836920830353     3.814967606315     1.881854749862
H     -2.245303850345     4.242134029105     0.216848640727
Pd     1.153749835684     1.345570198810     0.231374334472
C      1.247717352382    -0.777823619792     3.054680968326
O      1.091236990735     0.363931909989     2.290684905083
O      2.080321761601    -0.878406309013     3.960516766722
C      0.246957313747    -1.891341183325     2.656221578767
H      0.071461463847    -2.446824417615     3.586306982833
C      0.819930173994    -2.841530235682     1.625575262962
H      0.086453981658    -3.647783229016     1.417734262769
H      1.024965913617    -2.289724038710     0.687650954818
H      1.760181407556    -3.293660786381     2.003447702309
N     -1.011395217806    -1.350821451978     2.152420485383
C     -1.697139597891    -0.450599572070     2.910426434244
O     -1.272685371325     0.014973251920     3.994322620327
C     -3.026571172075    -0.052880650686     2.403843480440
H     -3.462583354261     0.681584340306     3.102630033415
H     -2.895241408449     0.385410627155     1.404105619820
H     -3.651415304333    -0.960567605564     2.349157299461
N      0.985774630127    -0.216500344593    -1.283066034431
C      1.982152063502    -0.619712253984    -2.131750207290
C      1.697659823834    -1.514070755828    -3.146436514606
C      0.416553287608    -2.002567547155    -3.312918349345
C     -0.561149295649    -1.566763766044    -2.454891206310
C     -0.216649706145    -0.651761954041    -1.444474495634
H      2.990333439631    -0.243910942698    -2.000353283951
H      2.485953311921    -1.834045455825    -3.808756700828
H      0.188151250541    -2.710719915807    -4.105259666978
H     -1.577480595985    -1.901227691207    -2.521394053072
O     -1.227936570086    -0.250842232757    -0.650504319013
H     -0.882727173444     0.500760806320    -0.065190512330

