# STO-3G

title

0 1
C      0.351755734869     3.758979570823    -0.208455491786
C      1.608687966038     4.240402415788    -0.641167546010
C      1.753854547349     4.851544265182    -1.901274119808
C      0.637141076809     4.998336327913    -2.748497812890
C     -0.622137313234     4.531792569876    -2.322673497835
C     -0.761510858601     3.916425664964    -1.063425503935
H     -0.576731125671    -1.694300482685     1.961984115836
H      2.474959166071     4.149296922739     0.014159770442
H      2.727292107489     5.225173706352    -2.213195219968
H      0.744351344644     5.481366951514    -3.717248470416
H     -1.492616946438     4.652178748445    -2.964107221022
H     -1.735243190601     3.555575981789    -0.737499468210
C      0.200725788983     3.082926116254     1.142288767684
H      0.667867129549     3.706448964460     1.923714437553
H     -0.855283183421     2.976168244983     1.406957721292
C      0.855646548245     1.689678673683     1.183540011969
H      1.837379541554     1.670806955620     0.715597139275
C      0.917340315829     0.955903366631     2.467286928063
O      0.125833494010     1.252824972475     3.399472299670
O      1.885394196622    -0.046016135821     2.619048803514
C      1.849002370874    -0.778004613632     3.852107490067
H      2.647928633487    -1.550995030703     3.842529369673
H      2.025303547732    -0.103553451625     4.720315170022
H      0.871873193992    -1.297775177451     3.977688687461
Pd    -0.271148293368     0.588688996680    -0.170578388834
C     -1.158541685054    -2.220752171928     0.143174783382
O     -0.163561192240    -2.041714524328     1.133158596865
O     -0.816354385627    -2.555325101613    -0.992211118484
C     -2.589757582380    -2.042759797291     0.699498772000
H     -2.884266491443    -3.056179071931     1.015974963392
C     -3.573233080127    -1.591511416771    -0.366379552748
H     -4.590736030940    -1.534572329716     0.073694066431
H     -3.294950952003    -0.591152384145    -0.752034916630
H     -3.587675156319    -2.316160300142    -1.207433445389
N     -2.708730532592    -1.189658633126     1.889195152363
C     -2.472898153684     0.096320991815     1.893420290152
O     -1.967648486515     0.881961525132     0.942200457635
C     -2.888429915594     0.775455464229     3.129897575007
H     -2.336678062442     0.313530524355     3.967003197874
H     -2.643726830184     1.848713307369     3.062294099471
H     -3.974014820101     0.624554847744     3.258290101438
N      1.409333201474     0.332892521667    -1.302541248914
C      1.631153075164     1.216507179166    -2.326483991019
C      2.803696728380     1.153598210294    -3.049772073376
C      3.754356150923     0.200038622121    -2.759280044845
C      3.502837406067    -0.676636860349    -1.737030236524
C      2.292514965373    -0.581485229536    -1.020485021669
H      0.884548610020     1.962350421413    -2.567839235943
H      2.970336361739     1.857631100269    -3.848554061982
H      4.679097642185     0.143410790559    -3.327389927336
H      4.197216104934    -1.446013038912    -1.462398584541
O      2.174650731604    -1.476380542776    -0.057462975813
H      1.297700697097    -1.559227158913     0.427109340478

