# STO-3G

title

0 1
C      1.294828229385     2.995147690079    -0.700896856584
C      2.577854390141     2.516409444941    -1.035566252855
C      3.548588852732     3.403490591486    -1.546238712337
C      3.242463979459     4.765165900048    -1.735792061127
C      1.957489782930     5.239811148020    -1.410657808987
C      0.983550679213     4.359303666728    -0.892925830751
H     -0.046992494347    -0.904470570929     0.048223966979
H      2.824824456843     1.463714930107    -0.917234915214
H      4.536936142307     3.024871323125    -1.798892308922
H      3.993582568981     5.444704154048    -2.131692231422
H      1.710627040584     6.290080311808    -1.553849963544
H     -0.003406229291     4.746997978478    -0.643734847253
C      0.908440024850     1.657879829157     2.007502048263
H      0.612433751572     0.713798203428     2.455263951353
H      1.942302876153     1.707666768863     1.684350888224
C      0.100529195790     2.790698891642     2.065058792974
H      0.504475960451     3.737884245175     1.741832690776
C     -1.181031593916     2.870841033465     2.787587991324
O     -1.837379737358     3.943301408312     2.722136086099
O     -1.581189302603     1.816198778671     3.629972629182
C     -2.815412852994     2.014505080386     4.333638105120
H     -3.028159848258     1.124936331537     4.964318268217
H     -2.752105620613     2.904300262883     5.000697713010
H     -3.659667608965     2.147166927700     3.619260043950
Pd    -0.132790281390     1.786824393996     0.004171672892
C      1.695879483295    -1.875172412657     1.827849926873
O      2.195925651335    -2.060386737491     2.945659221066
O      2.341504089868    -1.170798745547     0.860592533514
C      0.249326391483    -2.394665630998     1.496864135592
H     -0.176439414700    -2.727286633243     2.447371646452
C      0.245388647326    -3.554126849356     0.524920019036
H     -0.796655253518    -3.902147645827     0.371766014153
H      0.652243045714    -3.228192794703    -0.454956352964
H      0.857275574131    -4.390326387169     0.921658377574
N     -0.506008941544    -1.291828793564     0.899752895905
C     -1.530103273028    -0.569117347791     1.354650690382
O     -1.796641311911     0.591659677438     0.890621572592
C     -2.387784283802    -1.128221592288     2.413568630443
H     -2.739625743075    -2.119570490998     2.081577295339
H     -1.792637524159    -1.192179193575     3.339331223179
H     -3.246547970224    -0.450890204388     2.567469172595
N     -0.257547408854     1.062616359630    -1.943165318749
C     -0.839419720880     1.770332973296    -2.957402988182
C     -0.698039947156     1.348143419344    -4.263068323415
C      0.022784404919     0.211774487992    -4.557716849447
C      0.595656497765    -0.485652925852    -3.527167412039
C      0.440130047662    -0.027368045213    -2.197066812482
H     -1.407946417844     2.665162120003    -2.732914192328
H     -1.157496507704     1.914697285072    -5.055664766137
H      0.133849088900    -0.124503292166    -5.584974616540
H      1.164401820088    -1.377668851837    -3.689125981264
O      1.007757055186    -0.737677775221    -1.276916190940
H      1.867886545144    -0.985492160770    -0.023332338697

