# STO-3G

title

0 1
C      1.606410205091     2.442852454488    -0.024018367890
C      2.869487776071     1.826143188803    -0.139155412559
C      4.032530728129     2.620707525976    -0.204213848522
C      3.944081749065     4.026175237016    -0.162184178200
C      2.681200025310     4.637760716813    -0.052628100259
C      1.511350906230     3.850392769804     0.018179587365
H     -4.320733448142    -1.551539780582     0.711506275733
H      2.950692933961     0.742772341808    -0.183847942305
H      5.002481958564     2.134962624900    -0.292839073476
H      4.844672074852     4.633492018972    -0.216912894849
H      2.599805333297     5.722556541637    -0.018997158361
H      0.544917181699     4.342073231509     0.110319630390
C     -0.848874726420     2.142846235681     2.062835087944
H     -0.688374943448     3.211355780946     2.162523286656
H     -1.871971768943     1.821282425698     1.899395882355
C      0.146689930645     1.218599090428     2.369796172522
H     -0.053776205207     0.154569259873     2.353049296118
C      1.462788001004     1.579921871671     2.929010457975
O      2.276637868257     0.661908953346     3.207202706614
O      1.759587041609     2.929463116019     3.190038014039
C      3.109588714691     3.204219725387     3.588146102227
H      3.231565048958     4.296862700443     3.746772880190
H      3.357611857415     2.681684927967     4.539752188223
H      3.825120927481     2.889549832868     2.794553194698
Pd    -0.080580812035     1.390518205502     0.060373517169
C     -1.205635007169    -1.951242314538     0.465519752142
O     -1.505545161474    -2.459259834343    -0.635716871440
O      0.009411044091    -1.581776729404     0.873019769719
C     -2.318438911715    -1.593759457918     1.503801541627
H     -1.912829256379    -0.858959840108     2.204840453086
C     -2.788893801069    -2.802087870985     2.283124938788
H     -3.578364737532    -2.498554108555     3.001277390813
H     -3.208350856290    -3.552325676491     1.580219110802
H     -1.940948545859    -3.252378395002     2.839273484713
N     -3.463486042011    -1.020680248098     0.785101728440
C     -3.307812910734     0.045357732442    -0.021056435802
O     -2.253127758414     0.722179904510    -0.133686130590
C     -4.488400853266     0.443046144778    -0.811621572348
H     -5.311389562854     0.661225430014    -0.110435056350
H     -4.237064182640     1.332813110715    -1.413487962811
H     -4.753206203036    -0.402326752451    -1.471665211744
N      0.376918352725     0.715032856629    -1.834819018166
C      0.031282753951     1.462844417391    -2.925293115377
C      0.447479899676     1.084021411327    -4.183580978644
C      1.208506091872    -0.050666386924    -4.356332683578
C      1.543120428766    -0.787940874421    -3.252219240949
C      1.100578113100    -0.383035278976    -1.970872536767
H     -0.566082422053     2.357694903251    -2.796683660961
H      0.171323745341     1.680683493880    -5.036646958224
H      1.535853343375    -0.355005877757    -5.346733570749
H      2.125732787081    -1.684140047723    -3.321425909858
O      1.470350019500    -1.141668840756    -0.992451013702
H      0.754810433081    -1.407533941450     0.028375798036

