# STO-3G

title

0 1
C      1.695215479168     2.987479797607    -0.702999708438
C      2.989125684858     2.668405203482    -1.162490457305
C      3.827849116390     3.689627894340    -1.656830652027
C      3.380869908545     5.024312641457    -1.706677457762
C      2.082587880043     5.337419558660    -1.261630734051
C      1.239165003641     4.323763128485    -0.759087896538
H     -2.374044092787    -2.333554937307     1.769123627258
H      3.331706929540     1.637130029569    -1.165700066517
H      4.824578953473     3.433736871385    -2.010886234404
H      4.031813562816     5.805953160863    -2.091732782064
H      1.722962205669     6.363944915354    -1.302263650076
H      0.237145419646     4.586106747297    -0.423369549689
C      1.571137490411     1.629821236718     1.947153900311
H      1.486713089469     0.603539101133     2.290209933244
H      2.554356097679     1.913379778129     1.589287270986
C      0.563872459819     2.580097641194     2.112333643285
H      0.756083950447     3.607023776130     1.841985779436
C     -0.666259222946     2.361794152817     2.893280312741
O     -1.519234846120     3.286168902371     2.946175331732
O     -0.813134269841     1.181967838462     3.643485156699
C     -2.047901200376     1.039665575696     4.358321689954
H     -2.058433669169     0.057650842342     4.879103002012
H     -2.158705100001     1.843476764981     5.120812632284
H     -2.914827874642     1.067795900548     3.660836374986
Pd     0.436011665366     1.621359272287     0.018326381737
C      0.445485813922    -1.876442997726     0.560556535514
O     -0.092649782704    -2.436537580931    -0.419469239125
O      1.607468576980    -1.220682664619     0.565358193581
C     -0.294271908837    -1.811760906264     1.933595698521
H      0.127199158810    -0.986277414417     2.511380185786
C     -0.152229248646    -3.089210729558     2.731224967608
H     -0.702021516170    -2.990579080632     3.689901768254
H     -0.581442734652    -3.934054561854     2.152918538393
H      0.918034813866    -3.291594003018     2.941427167637
N     -1.719973461074    -1.567562518926     1.684350879539
C     -2.123786771792    -0.451485672764     1.052552413422
O     -1.381632410931     0.509366985973     0.721529866664
C     -3.565273865681    -0.363249982114     0.750680211155
H     -3.813539550806    -1.195607554748     0.069433021810
H     -4.116755221354    -0.460584374085     1.700172546068
H     -3.781397918772     0.607046656474     0.269523401995
N      0.268633481361     0.901671846323    -1.916062159822
C     -0.701693560095     1.393819630549    -2.743107327571
C     -0.707107413904     1.056197874674    -4.079648927216
C      0.255326753210     0.215235214031    -4.592797107228
C      1.215075319791    -0.273846708032    -3.747352866212
C      1.196981427053     0.081273882382    -2.378136941174
H     -1.461024753016     2.057443162262    -2.346443388215
H     -1.474436381093     1.451266038475    -4.723983536427
H      0.251585819640    -0.057209282968    -5.644655921091
H      1.981497608516    -0.942337348735    -4.082795136649
O      2.134972579430    -0.438091418415    -1.655321109658
H      1.930015504499    -0.869185526083    -0.462165884235

