# STO-3G

title

0 1
C      1.796313068395     2.964553676102    -0.659033546241
C      3.183247982340     2.725158794197    -0.772998951871
C      4.058099115108     3.770688136340    -1.135773079652
C      3.556658658136     5.059770625019    -1.401539951608
C      2.172639443816     5.299096862502    -1.301472692671
C      1.294812205727     4.258293879612    -0.930114114171
H     -2.628022133920    -1.634662044389     2.282087476831
H      3.585640083952     1.728412107688    -0.600999173983
H      5.124869305577     3.571579727047    -1.218408535668
H      4.233207557402     5.862957634306    -1.684472506276
H      1.774141253588     6.291176255116    -1.506428542537
H      0.228642955132     4.469372044974    -0.852264752702
C      0.933469831614     1.558481861279     2.062979771571
H      0.586345602705     0.610740694891     2.457674471405
H      2.006668237710     1.722805579355     2.111573768591
C      0.089933524981     2.610817445534     1.720641543818
H      0.525573896547     3.567411037022     1.481045729598
C     -1.378764595428     2.620403311592     1.829509161870
O     -2.004229275600     3.556644043321     1.265769318520
O     -2.055042666003     1.563873071545     2.457234027739
C     -3.479712223355     1.546455796771     2.288925843166
H     -3.901826522884     0.657291224820     2.802794269042
H     -3.943724163485     2.458686476144     2.727296309715
H     -3.747057010614     1.471035202312     1.210561717437
Pd     0.579129456967     1.442076520110    -0.187970022483
C     -0.075702890417    -1.339164879703     0.652990883052
O      1.127039724177    -1.624230684246     0.281482755406
O     -0.698173850935    -0.241389760698     0.374502924398
C     -0.777276180448    -2.404016198129     1.526712953406
H      0.026567846050    -2.940414083905     2.040404562617
C     -1.575486358478    -3.387781007543     0.697631557522
H     -2.018407762273    -4.157148758606     1.363499504720
H     -2.393424835960    -2.852024791085     0.174084857848
H     -0.918849145225    -3.885008754815    -0.046003991423
N     -1.664768810581    -1.819908992799     2.527403941347
C     -1.115608323751    -1.220705878601     3.620631504283
O      0.120072085043    -1.065892774821     3.783786680199
C     -2.037427323485    -0.788622750488     4.693177444293
H     -1.717840992111    -1.288308988481     5.622451666795
H     -1.937187876026     0.304492904324     4.790969038618
H     -3.075506434966    -1.070327941146     4.448867719935
N      0.755198736352     0.893842700151    -2.189112124871
C      0.145370399876     1.666363862156    -3.140239428713
C      0.447986379077     1.487337469087    -4.473724531056
C      1.364005819366     0.534582473672    -4.861238512902
C      1.954717579736    -0.232566918989    -3.892236138149
C      1.616977174183    -0.028964475212    -2.536198533488
H     -0.570379621891     2.423767714387    -2.842309388604
H     -0.032175006875     2.105194723810    -5.214595557188
H      1.610548043568     0.393389914612    -5.910202336966
H      2.673630010777    -0.991779039505    -4.127052956364
O      2.237525237314    -0.811722722698    -1.694367232508
H      1.760066395670    -1.075760704474    -0.729790237511

