# STO-3G

title

0 1
C      1.232402586112     2.834504101874    -0.463728150460
C      2.633321896786     3.002658676302    -0.499392382179
C      3.190824031155     4.273031430076    -0.753674487393
C      2.356360519142     5.384285987732    -0.983271996296
C      0.958481079149     5.218452338233    -0.957523944153
C      0.396093094565     3.949543594939    -0.701663198955
H     -2.544656331255    -2.322760818104     1.699432703067
H      3.294145800349     2.152154039880    -0.342345890884
H      4.272763258772     4.388890945419    -0.774001984315
H      2.789602497892     6.362989674450    -1.175968374942
H      0.305961798415     6.072195152529    -1.129393137185
H     -0.687919402378     3.848423675058    -0.679166998610
C      0.986509167653     0.970039866746     1.998216564047
H      1.831118999352     1.633577857307     2.155741309566
H      1.180489981022    -0.092430023969     2.105353382181
C     -0.323032314180     1.445995006507     1.945507312754
H     -1.131512226762     0.730499829416     1.918250980646
C     -0.721251950798     2.838544307446     2.214799742161
O      0.143600876409     3.690054922496     2.547901523964
O     -2.065784219782     3.198415443861     2.022750975605
C     -2.386920656987     4.573055909514     2.280369759312
H     -3.470388334737     4.740214238412     2.097651505184
H     -2.168714136781     4.838344412630     3.340097443108
H     -1.810832778624     5.248161888579     1.606966129644
Pd     0.426422231320     1.025821280079    -0.188841631267
C      0.121618240902    -1.913602611137     0.481899504213
O      1.365824573005    -2.082799328556     0.185365933405
O     -0.576645995015    -0.876006642532     0.160947442576
C     -0.556902813899    -3.004037614582     1.340513155741
H      0.214768084449    -3.396504314679     2.009588336541
C     -1.110751130869    -4.138206371739     0.505450261041
H     -1.556846105057    -4.903552742596     1.173807536751
H     -1.899113594795    -3.751233593786    -0.171978267882
H     -0.300871699703    -4.604810130024    -0.092718497637
N     -1.641556419821    -2.442825599960     2.139649592335
C     -1.333697548518    -1.736875104138     3.263042189092
O     -0.162095691646    -1.524096387406     3.656577848305
C     -2.462822144875    -1.203117560441     4.056046435656
H     -2.381079355270    -1.629596433063     5.069795992764
H     -2.356409574260    -0.107156440963     4.094747802233
H     -3.428996901619    -1.486618025836     3.602945195698
N      0.852825514904     0.671699860226    -2.201578643156
C      0.287449346637     1.460102272412    -3.167843771872
C      0.745548856014     1.399612364858    -4.466831288492
C      1.774905200793     0.551114714474    -4.806310418806
C      2.319996728799    -0.234610880296    -3.826292534507
C      1.823283638463    -0.156580993807    -2.505710902007
H     -0.520695912731     2.134279448694    -2.909996211347
H      0.297641870201     2.029579002637    -5.217558825895
H      2.144383469897     0.504299278130    -5.827274815825
H      3.122090467503    -0.916746847452    -4.026318105456
O      2.422813115967    -0.949371139133    -1.660638339993
H      1.935306050164    -1.365762255359    -0.752063385354

