# STO-3G

title

0 1
C      1.205181532476     2.569389786283    -1.142512248907
C      2.244351745437     3.506421037011    -0.954948317586
C      2.277776353577     4.691082067876    -1.722072121360
C      1.274656840746     4.951050565236    -2.674671474026
C      0.236087965405     4.017448107157    -2.861100938547
C      0.202682944982     2.829227569827    -2.103489889818
H     -1.918823881940    -1.571958164336     3.194828108889
H      3.023581947405     3.334028966274    -0.214800928875
H      3.080147357249     5.409244533158    -1.564354315578
H      1.299721570050     5.867846677134    -3.259088641874
H     -0.544572369808     4.207999888915    -3.595009410574
H     -0.601706873007     2.114336892869    -2.266388327154
C      1.233027963552     1.793162936782     1.981140261454
H      1.860163306912     2.679346614603     1.976238264412
H      1.588876081436     0.936016412413     2.541329071392
C     -0.093042806278     1.849966244205     1.554889744532
H     -0.742595768732     0.995610957999     1.695006000259
C     -0.790033966682     3.088251601913     1.160012977502
O     -0.207312939842     4.199637728933     1.269817054288
O     -2.097459348074     2.992269089875     0.656444836415
C     -2.677546205957     4.219134408568     0.191616387664
H     -3.701705876231     4.020938498095    -0.191388140384
H     -2.752555296098     4.960606638596     1.019287026358
H     -2.072618113243     4.652219025927    -0.638013916311
Pd     1.202895702238     0.864778110384    -0.098086706381
C      0.217990263351    -1.503313925249     1.435675915435
O     -0.883165102558    -1.377000566300     0.751263376046
O      1.343425543342    -0.994052109161     1.080621332076
C      0.087697062337    -2.154179409978     2.828561075454
H      1.027663275555    -2.017900394789     3.367364281293
C     -0.271074495495    -3.621972690247     2.771278132445
H     -0.358462031778    -4.019051958626     3.803669247914
H     -1.247374948074    -3.746206744484     2.258101962941
H      0.511935542130    -4.187025767897     2.225645648654
N     -0.975140976966    -1.442244318986     3.542656104152
C     -0.682420609524    -0.381058259833     4.344625459536
O      0.473496357798     0.046918206047     4.571197879519
C     -1.847774098774     0.290179725306     4.955474386714
H     -1.487202661715     1.124246537592     5.582710922471
H     -2.489052788556     0.665053404015     4.140653509148
H     -2.387295664506    -0.452823308528     5.567873222721
N      1.353158882698    -0.121956156826    -1.920043124499
C      2.430420459530     0.108411376884    -2.733271633474
C      2.456163069094    -0.411361699683    -4.009938154524
C      1.402871921426    -1.162760001318    -4.480139179672
C      0.338126806733    -1.382856439881    -3.647377659723
C      0.344114522746    -0.843496567825    -2.341517586845
H      3.260974508772     0.704592021487    -2.373350486068
H      3.306214863829    -0.219539519588    -4.643925239529
H      1.415674766051    -1.570721552145    -5.487369987166
H     -0.512733338765    -1.958086562427    -3.954034864116
O     -0.731066583906    -1.112263324359    -1.649769377239
H     -0.779337874793    -1.112554962367    -0.546918155609

