# STO-3G

title

0 1
C      1.140875196516     2.977478432067    -0.694713531264
C      2.276389534604     3.365385139823    -1.437926108694
C      2.289215021145     4.602377817941    -2.116990272397
C      1.168120964652     5.452594277755    -2.066839422917
C      0.033333010372     5.064220041795    -1.328830537988
C      0.017301095092     3.832905272443    -0.640504187839
H     -0.762898743731    -0.406990376443     0.224179939306
H      3.145827003877     2.712942833449    -1.501953780269
H      3.171252038582     4.893786385940    -2.683860030733
H      1.179691724301     6.404807935305    -2.591812523094
H     -0.835833662289     5.717237583534    -1.279332566195
H     -0.867588206194     3.559592177537    -0.067355437335
C      2.206179220951     1.713596801412     2.053261066109
H      2.408173489798     0.750168782171     2.512324666319
H      3.055915220302     2.234192228490     1.621063777988
C      0.973000925768     2.349725717929     2.167046378911
H      0.862612610085     3.349897134534     1.781448878074
C     -0.138559161720     1.908130875419     3.025654348246
O     -1.212534423931     2.563245265079     2.989108883130
O      0.036885123981     0.823452268447     3.898718212907
C     -1.016804595007     0.603918125011     4.848091542051
H     -0.775844546646    -0.288906915996     5.464750382341
H     -1.125593077114     1.478576885725     5.527666702423
H     -1.988062477874     0.415884082940     4.337847228947
Pd     1.119745077472     1.169824650464     0.167000560627
C      0.768147155986    -1.568435211029     1.954906224209
O      1.441362854322    -2.124614808023     2.839816663968
O      1.311779708764    -0.852341287182     0.944428909117
C     -0.778936007571    -1.686174034548     1.896267385872
H     -1.184170817545    -1.563814959319     2.904460027712
C     -1.207778704051    -3.044077977792     1.378916071921
H     -2.314959830518    -3.117427612162     1.407648560763
H     -0.868813738291    -3.164200884316     0.329794868613
H     -0.775447241404    -3.849778953839     2.008229249800
N     -1.344909318745    -0.661750788457     1.015559421793
C     -2.527192498229    -0.051991525381     1.291062324449
O     -3.260346485956    -0.333278258425     2.268401123541
C     -2.953767669349     1.020371073284     0.363611452000
H     -3.944674497497     0.736333036930    -0.028637007074
H     -3.033561370011     1.947479264770     0.957333270204
H     -2.236213625346     1.142672370436    -0.464307148562
N      0.940657240062     0.284539991583    -1.755108533656
C      0.242192047687     0.888842833911    -2.768775130465
C      0.401918981500     0.465322995670    -4.071465693374
C      1.254424207240    -0.572349678154    -4.372590423283
C      1.927977036824    -1.177607372053    -3.346192084245
C      1.735735341720    -0.728292288631    -2.022409629482
H     -0.441248468674     1.700209440821    -2.550387854941
H     -0.148985758588     0.954098786954    -4.858502630928
H      1.382478704744    -0.908725643142    -5.398164556134
H      2.593166974205    -2.002046115951    -3.511415424133
O      2.410341221009    -1.399530388631    -1.122810852594
H      2.082514210606    -1.245880142744    -0.113087148224

