# STO-3G

title

0 1
C      1.603643374968     3.183359410145    -0.949555580701
C      2.878559179915     3.016913705521    -1.534173198716
C      3.460672311458     4.058759797152    -2.285593629901
C      2.772208078945     5.273688820578    -2.470863251986
C      1.496796861602     5.441442812707    -1.898496977278
C      0.915036629022     4.403765096263    -1.138941592259
H     -2.498526545169    -1.167985624526     3.021791360248
H      3.416207706513     2.076813615582    -1.420280286707
H      4.444381738148     3.915195545066    -2.728929968330
H      3.221651425440     6.074665051131    -3.053452836276
H      0.954922003270     6.375218165621    -2.037875297199
H     -0.072669500038     4.557970910940    -0.705168229885
C      1.953189288908     2.115490550142     1.902056932285
H      2.006494519340     1.146326973009     2.391351550733
H      2.876175569445     2.478421588888     1.462381896600
C      0.836047040807     2.948360353854     2.007931466100
H      0.885788728772     3.948958026952     1.606019454326
C     -0.326769486925     2.678294062866     2.872161796428
O     -1.300190237571     3.475621004728     2.830816785863
O     -0.289377710723     1.608302706130     3.783793190067
C     -1.504266886716     1.362738267672     4.504870913152
H     -1.371046262301     0.475518391316     5.160324556158
H     -1.769561265933     2.235025401031     5.143870012640
H     -2.341902015989     1.148800685899     3.802592758816
Pd     0.728835552674     1.710108267266     0.090556516775
C      0.213823636056    -0.884667715268     1.485708380577
O      1.430653640701    -1.204537653390     1.196757657361
O     -0.323610752664     0.254588247575     1.211402286873
C     -0.671090821245    -1.885181910884     2.268588134504
H     -0.375984623590    -1.815208646302     3.324813815503
C     -0.482209256875    -3.321418665154     1.823211986070
H     -1.166009474172    -3.980000993857     2.397122525683
H     -0.714963644390    -3.417733847506     0.742969314025
H      0.564826227824    -3.643558284924     1.998893880918
N     -2.086655312546    -1.527592969246     2.173410087316
C     -2.713018442749    -1.339586467014     0.973632055456
O     -2.192419426099    -1.555143510522    -0.143556750212
C     -4.112597772570    -0.856418682731     1.022727082121
H     -4.731455831424    -1.589045723542     0.478749082684
H     -4.459931042047    -0.766682244011     2.064896272392
H     -4.144987552359     0.123788678052     0.517993526280
N      0.638362750096     0.632046365020    -1.697466159515
C     -0.216043000617     1.009306402499    -2.697336018353
C     -0.070931969766     0.481284493258    -3.963760468355
C      0.917595330027    -0.441323409834    -4.226943462574
C      1.745352287884    -0.819453508058    -3.202364165131
C      1.559261204587    -0.266340857554    -1.917089070728
H     -0.990053263659     1.741132620662    -2.497836280844
H     -0.742783780366     0.790012001320    -4.747179124689
H      1.033393472146    -0.864314636505    -5.221152435823
H      2.521275687185    -1.545762030755    -3.336109314830
O      2.389000802697    -0.715421432078    -1.000795721722
H      2.029854483874    -0.804361011063     0.008798640727

