# STO-3G

title

0 1
C      1.615353361848     3.252543884881    -1.037213592700
C      2.953024918180     3.193807262859    -1.483923652354
C      3.559855165448     4.328793589480    -2.060740858465
C      2.833951429947     5.527125787281    -2.206210824274
C      1.496934045556     5.586463878575    -1.769228252014
C      0.888295643285     4.455640736761    -1.183817550176
H     -2.342927931256    -0.687362764121     1.027790733590
H      3.523046085849     2.270005597154    -1.397477026096
H      4.592869173913     4.271444993331    -2.398469973749
H      3.303477886900     6.400437751021    -2.652910845821
H      0.927942659256     6.507937511995    -1.877195485905
H     -0.146480338077     4.525929467733    -0.850082168504
C      1.733182284033     1.938797527666     1.666659311842
H      1.828391000133     0.937228897466     2.078825719064
H      2.651002822260     2.395521135689     1.313891638623
C      0.557318232618     2.685013771957     1.779803775952
H      0.560653568038     3.720016872277     1.472334751722
C     -0.591817126280     2.290753123851     2.614048873479
O     -1.567740536601     3.081598141379     2.697666091880
O     -0.483184652587     1.164490475238     3.448386143153
C     -1.518772099919     1.006206183511     4.428576996407
H     -1.372515567642     0.045959705511     4.971265852451
H     -1.490678376749     1.836809582579     5.168495830459
H     -2.521986066908     0.978076264887     3.950111601161
Pd     0.675161193285     1.654095317834    -0.279657736319
C      0.050152002805    -0.962770845080     1.069882342490
O      1.308264544360    -1.223686740758     0.970412319280
O     -0.516941608919     0.050946107884     0.486228098358
C     -0.862838265541    -1.849141732581     1.928970509071
H     -0.536485524592    -1.789620357816     2.976140737862
C     -0.827808032804    -3.301213782117     1.499791728314
H     -1.464973097972    -3.903082977413     2.180750710168
H     -1.226539888549    -3.389461653746     0.468746239010
H      0.210144593745    -3.691693005487     1.537828548416
N     -2.228619312436    -1.352883300788     1.789304842720
C     -3.148267958532    -1.501806472634     2.772146967135
O     -2.944257760125    -2.084372650344     3.864633296562
C     -4.473618326338    -0.914306001733     2.485624538469
H     -4.866415537767    -1.404689618610     1.579368909319
H     -5.135269846552    -1.102259430735     3.348631111447
H     -4.345106270729     0.168721506389     2.317454000070
N      0.936908770888     0.736271758049    -2.136809050384
C      0.397547093555     1.281453131145    -3.270842268257
C      0.781861813127     0.815917472514    -4.510561713438
C      1.705475656505    -0.199311755382    -4.620799398102
C      2.226356294370    -0.732611170817    -3.471476271669
C      1.805943011392    -0.239073287614    -2.216909430310
H     -0.325319554494     2.085244877002    -3.192169273358
H      0.355534203213     1.254956802429    -5.397647734963
H      2.013288474823    -0.568569396451    -5.595513378535
H      2.947003201786    -1.525872914146    -3.490165666866
O      2.382632287844    -0.822642137831    -1.195250946128
H      1.943254923992    -0.866729408488    -0.211257686531

