# STO-3G

title

0 1
C      2.161239078702     2.930143568058    -0.858114159008
C      3.142168208482     2.254856253476    -1.615966446912
C      4.212136331666     2.971371262886    -2.191962147099
C      4.305532299042     4.366998739835    -2.026999920721
C      3.322136880877     5.044743929395    -1.281308197750
C      2.254327970582     4.331155465714    -0.696283943072
H     -0.647554813391    -2.672081969212     1.059722946894
H      3.073904812800     1.180129904977    -1.776717518215
H      4.962369246141     2.438434967782    -2.772929672405
H      5.130039038343     4.917069643790    -2.474456284577
H      3.383898395931     6.123358469610    -1.149693758131
H      1.507519265161     4.876091931838    -0.119848088229
C      1.836412561312     1.125271150289     1.633704984416
H      1.313385748698     0.232623868124     1.960219849685
H      2.775173301483     0.953515679699     1.116037050422
C      1.453564046717     2.410024029624     2.013569891436
H      2.091446778881     3.240588786179     1.754258582107
C      0.392914256811     2.724452295730     2.985640266593
O      0.081265209231     3.931734289262     3.156129681806
O     -0.180379039176     1.700889155344     3.759389317428
C     -1.119408064700     2.124793904572     4.758585806557
H     -1.494769932442     1.237698995087     5.313430629110
H     -0.636692281633     2.810493610923     5.491538830129
H     -1.991195060158     2.636449249582     4.290889287256
Pd     0.603117921204     1.946428958698    -0.068309587111
C     -1.002126190657    -0.341766564170     0.822885313385
O     -0.015712785247    -0.972856048124     0.248966915990
O     -1.120896104217     0.940687366367     0.809154399807
C     -2.035947454159    -1.212480395867     1.556655936282
H     -3.014813562226    -1.091048287836     1.072086888557
C     -2.182535917877    -0.839214588376     3.016298868059
H     -2.935307278266    -1.497597687240     3.497169457808
H     -1.209048943885    -0.973620243797     3.530442366317
H     -2.519407131131     0.212726690345     3.105702233023
N     -1.582293085303    -2.595881222841     1.459999803150
C     -2.455717223019    -3.628019033742     1.549714131791
O     -3.675545591359    -3.499801371287     1.819342403426
C     -1.908909255340    -4.983918188130     1.325195567260
H     -2.104508768575    -5.572731948519     2.236261816323
H     -2.445516123383    -5.415240135247     0.464805305744
H     -0.824458778629    -4.938583656330     1.122398345622
N     -0.071752821613     1.714289316629    -2.031823110932
C     -0.552012200594     2.793849191721    -2.723124789213
C     -0.771906684344     2.701270904612    -4.081466068659
C     -0.512282133210     1.527013373823    -4.753330295547
C     -0.037739295300     0.459625752954    -4.037486281347
C      0.167619535097     0.587662880939    -2.647283834795
H     -0.750894048657     3.723169127983    -2.202075694739
H     -1.145393537662     3.557537580595    -4.618845436339
H     -0.680806445414     1.448853511040    -5.824152915044
H      0.180879733238    -0.482894219864    -4.498830682349
O      0.629585438921    -0.496358354970    -2.065575948105
H      0.466564529534    -0.632353612620    -1.020704361878

