# STO-3G

title

0 1
C      1.600764218575     2.894134418107    -0.498939396204
C      2.988050458330     2.809532482492    -0.745131982871
C      3.719237933154     3.963284613760    -1.099569021419
C      3.071696815610     5.207631371371    -1.223340040725
C      1.685548362109     5.293407433796    -0.988592231151
C      0.952118480594     4.143961521693    -0.625736153117
H     -2.525273058581    -2.307304912852     1.618187657692
H      3.500886095436     1.851248543186    -0.682885494926
H      4.788504944200     3.882638289542    -1.286109699048
H      3.637618407952     6.094455825905    -1.499322607981
H      1.175158261220     6.250506457132    -1.080050848678
H     -0.115940978263     4.237612368888    -0.433728664987
C      1.086022925657     1.045655543759     2.148698820365
H      0.625610611013     0.123976991574     2.486988574648
H      2.170862261908     1.042470009937     2.081847995647
C      0.383336848609     2.239108916705     2.037893062390
H      0.932517542018     3.151354938620     1.877123501716
C     -1.044725292838     2.434203286646     2.346458122755
O     -1.792562108940     1.438585728561     2.509627330671
O     -1.574687820867     3.727655720279     2.187568599091
C     -2.963895459802     3.929950621849     2.505092509798
H     -3.054688976400     4.757085771638     3.242295304746
H     -3.512936947238     4.227765562878     1.586039806757
H     -3.470799227032     3.037755795505     2.939540889057
Pd     0.568971919983     1.225798066751    -0.065762798254
C      0.177541272490    -1.668126115150     0.559981359932
O      1.419328549831    -1.817221780817     0.231290224690
O     -0.527063719842    -0.616077808162     0.313337788102
C     -0.473935287317    -2.825786432377     1.348935019671
H      0.287503842068    -3.183100935226     2.049522312420
C     -0.891924168786    -3.972036081902     0.453115218307
H     -1.314645411953    -4.788798807233     1.074059032432
H     -1.669693403449    -3.622866414404    -0.256245089450
H     -0.017571247390    -4.357901939116    -0.110745327955
N     -1.637831923787    -2.377765934294     2.100196179447
C     -1.455927217244    -1.651119331656     3.236826900391
O     -0.331190418210    -1.373147567424     3.723367898367
C     -2.688070871466    -1.241549982773     3.940554012091
H     -3.246888232464    -2.154915994774     4.201187531975
H     -2.401969615044    -0.677261674042     4.843872586865
H     -3.272746608991    -0.601345859468     3.257702470278
N      0.700334431544     0.825285184882    -2.102521379399
C     -0.010016995642     1.580937912356    -2.995109723222
C      0.252962255628     1.483328669303    -4.345378741851
C      1.228360684789     0.627801387472    -4.807527418762
C      1.919308674685    -0.125417049052    -3.895488452089
C      1.619681008449    -0.008261646866    -2.520113927441
H     -0.773154540242     2.262402492271    -2.637691188417
H     -0.306732723259     2.087233223306    -5.040358249518
H      1.443238315845     0.550539974907    -5.870010965816
H      2.687952782396    -0.811443166972    -4.190213641772
O      2.340221714656    -0.770181792799    -1.739631596139
H      1.944567913044    -1.140029046336    -0.771324040673

