# STO-3G

title

0 1
C      1.913575214103     3.149956123500    -0.878097155103
C      3.280690278552     2.906249039944    -1.131189698707
C      4.097823506097     3.927104519985    -1.660448228083
C      3.555242789052     5.193573933798    -1.952675348736
C      2.189452722494     5.436251505001    -1.711106400305
C      1.369823940254     4.420708423111    -1.173790664393
H     -2.271411452378    -0.347074373244     1.594276763260
H      3.711139474825     1.925302251346    -0.936471286593
H      5.150504647699     3.726749442065    -1.850373088038
H      4.186700542342     5.977693752886    -2.363806472583
H      1.760563295465     6.411301131405    -1.934374959905
H      0.317018992020     4.633167511610    -0.990719506152
C      1.443637434843     1.902213655529     1.941145373473
H      1.195945499976     0.962300942724     2.425505189626
H      2.499357438070     2.088136158862     1.771226351157
C      0.501053005231     2.909217975706     1.745484938242
H      0.827168142274     3.869109695385     1.377454471206
C     -0.879260935207     2.882310023611     2.254750889277
O     -1.660655802577     3.798954354481     1.888187074832
O     -1.222158141238     1.986851465107     3.278961286213
C     -2.590928827907     2.029234251904     3.706064937492
H     -2.756516695185     1.265402304126     4.495343397578
H     -2.849711923470     3.026840577243     4.125422404043
H     -3.276709155794     1.791177383666     2.860515931225
Pd     0.731695310732     1.687899888799    -0.181665054686
C     -0.071746022913    -0.978779271783     0.912348311681
O      1.156940281576    -1.312436757362     0.725515576591
O     -0.585668306401     0.158804534761     0.564050389211
C     -1.007036150540    -1.987296063924     1.609643036679
H     -0.426086204507    -2.438821867452     2.422944744424
C     -1.449931476776    -3.072144264959     0.646277889468
H     -2.086389753553    -3.812065707029     1.170858922670
H     -2.047767587026    -2.612114361814    -0.168730205824
H     -0.568761590208    -3.591821352918     0.215487539899
N     -2.181199428651    -1.249145700240     2.065289589261
C     -3.114032913019    -1.492294846360     3.022567212734
O     -4.048354475975    -0.688854347409     3.267154614571
C     -3.036812330118    -2.737625353022     3.823281726213
H     -2.175090418086    -3.357246087558     3.546878949328
H     -2.963936863652    -2.435862684264     4.881396072847
H     -3.975040235167    -3.294572910947     3.657008283005
N      0.862930523349     0.858758652765    -2.091928874366
C      0.258743624641     1.490886203909    -3.145216117175
C      0.556407527093     1.114273457856    -4.438151908451
C      1.459673206588     0.103549230128    -4.682001060147
C      2.043765368289    -0.519729290553    -3.610559231142
C      1.709217728240    -0.115064914208    -2.300343580756
H     -0.446433495559     2.293099818072    -2.960716663420
H      0.080583424162     1.621943484339    -5.261223464681
H      1.701316264384    -0.193587149723    -5.699086026171
H      2.752060530702    -1.314591224990    -3.732718326333
O      2.328502300568    -0.779021006660    -1.353179719650
H      1.874582116364    -0.883432673452    -0.386330208670

