# STO-3G

title

0 1
C      1.157820700165     2.929634688463    -0.670715432174
C      2.417913966489     3.227731553432    -1.227364315852
C      2.576384489649     4.380386984136    -2.026798255461
C      1.481009249569     5.230173184712    -2.272971079401
C      0.221386143864     4.921578182190    -1.722287914235
C      0.052832782385     3.772294200015    -0.921876515048
H     -1.490890017790    -0.890439676763    -0.778581247609
H      3.269162879523     2.568659675189    -1.063058675937
H      3.550921508576     4.605013966231    -2.456229227168
H      1.606486291850     6.117995530001    -2.888588243118
H     -0.631834607074     5.568964696100    -1.915327289004
H     -0.929433706831     3.524922190638    -0.524225558460
C      2.096870769263     2.045907776977     2.028605891644
H      2.450785565530     1.148424612694     2.529334047745
H      2.833744018886     2.620654647076     1.478634949734
C      0.817847736655     2.567162064612     2.280000249086
H      0.544989685840     3.526160327720     1.864748536671
C     -0.082502260701     2.070107360328     3.336039361853
O     -1.231550034333     2.574759527161     3.435872710067
O      0.393312994023     1.144471044948     4.282426359871
C     -0.525304482424     0.774239803600     5.319722187609
H     -0.034867565204     0.045859606362     6.001031446251
H     -0.823935539095     1.663646867890     5.919943631703
H     -1.432844122789     0.292726913575     4.892471023417
Pd     0.813082338177     1.288968858642     0.418730039640
C      0.014919049185    -1.530505881096     1.255211378707
O      0.962873748423    -2.261773482108     0.792110458690
O      0.181355731610    -0.335814459211     1.730565456489
C     -1.487382158101    -1.918988444799     1.050300427161
H     -2.011318159526    -1.873633790021     2.009850368652
C     -1.704886277391    -3.277688026976     0.426839926031
H     -2.790985617468    -3.444863391700     0.275155423234
H     -1.197643291437    -3.319294281921    -0.559649958344
H     -1.294587488999    -4.070687238966     1.084793580760
N     -1.984593695696    -0.891554203377     0.114267194470
C     -2.410821784713     0.366236359190     0.431876587978
O     -2.215753207704     1.352129546056    -0.325760619596
C     -3.174774430694     0.542801217888     1.682609433213
H     -2.508094658289     0.350132296291     2.536244897701
H     -3.528320435474     1.588791723268     1.726856445965
H     -4.032418701557    -0.151277900546     1.665493162120
N      0.894807183622     0.186358787323    -1.440277002932
C      0.229395426930     0.703297321190    -2.522905879048
C      0.714944355674     0.491609426890    -3.798082932007
C      1.857432787881    -0.248469541111    -4.000331792006
C      2.488382281506    -0.783084549408    -2.908464311161
C      1.954916136495    -0.561961786643    -1.619858617628
H     -0.663970672672     1.297885427512    -2.379101041981
H      0.190255022350     0.918151618569    -4.636744192431
H      2.242231944042    -0.414134505319    -5.002898610338
H      3.366498686977    -1.389875988626    -2.998948882835
O      2.615435317995    -1.154978059285    -0.647138417741
H      2.015189416704    -1.553341815693     0.138721510950

