# STO-3G

title

0 1
C      1.031340134333     2.841913994212    -0.341333188355
C      2.412858361395     3.082686660726    -0.184204842608
C      2.928732608368     4.387064657333    -0.334207193585
C      2.073277762886     5.459794509184    -0.652531874540
C      0.695952458752     5.221205349122    -0.821248972165
C      0.174852832641     3.918722319255    -0.667962768637
H     -2.760726798640    -2.529521755027     1.212189017941
H      3.092534703378     2.262425579882     0.039662682740
H      3.996167885482     4.558307893683    -0.208400744699
H      2.475020784383     6.463670830983    -0.769405970973
H      0.026120243305     6.042694084281    -1.068614379781
H     -0.896312707706     3.760994262176    -0.791355319727
C      0.641221833176     0.866495313125     2.024940307496
H      1.467843532697     1.524623185076     2.272716022261
H      0.828818896989    -0.198211705971     2.119176785698
C     -0.659684134627     1.339963120638     1.867423053242
H     -1.461453007982     0.625371095177     1.750656458718
C     -1.077668068396     2.726118347330     2.132645478104
O     -2.255524781279     3.065007997336     1.845759385225
O     -0.141737479450     3.657849050753     2.613346742694
C     -0.613701939341     5.002939329860     2.768637518269
H      0.215227548835     5.640384016400     3.144822827615
H     -0.951835676401     5.418769013076     1.792929818639
H     -1.449945601644     5.047259073252     3.502493254572
Pd     0.278590289506     0.994000393789    -0.204015695398
C      0.014184895904    -1.970498790387     0.352640975226
O      1.290937072925    -2.082361003742     0.201809634481
O     -0.683008342435    -0.950205187488    -0.020824607936
C     -0.714332561432    -3.111808579537     1.097103340356
H     -0.014904696765    -3.484988038548     1.851268484917
C     -1.103046115476    -4.249036648726     0.177394848364
H     -1.592111706867    -5.050232168886     0.769318692611
H     -1.817979060670    -3.881673645750    -0.586911816172
H     -0.202815497745    -4.663138124700    -0.322120986558
N     -1.916364089465    -2.620421620136     1.762479273408
C     -1.786313591343    -1.918013454217     2.922141484463
O     -0.684531696652    -1.657253686814     3.462207660388
C     -3.030516992206    -1.451644463138     3.572593493671
H     -3.052811212697    -1.884723902041     4.586484608217
H     -2.988283833716    -0.351955288813     3.628624501628
H     -3.917444690172    -1.778665260546     3.001919843844
N      0.939593351417     0.713540980060    -2.164598842447
C      0.449665358526     1.499318159366    -3.173275925268
C      1.050966320106     1.488086999365    -4.413957502611
C      2.147656138948     0.691000967134    -4.652209117245
C      2.614955603800    -0.094019449591    -3.632134858764
C      1.971435598326    -0.068033581435    -2.374401949745
H     -0.411000048147     2.132954153599    -2.994746042741
H      0.660661410810     2.115239450919    -5.198492195640
H      2.628967735311     0.682736634474    -5.626557286394
H      3.462364464713    -0.738647444473    -3.754527835887
O      2.506317049206    -0.856394122313    -1.482399241170
H      1.935396280712    -1.316126920402    -0.647791385344

