# STO-3G

title

0 1
C      1.462530707433     2.567005558381    -0.372362714764
C      2.838784694685     2.287115861533    -0.216590276098
C      3.787456481931     3.328653276883    -0.265206682649
C      3.374081739387     4.658548904996    -0.478670733994
C      2.004777612398     4.940150153058    -0.642091468422
C      1.050744429929     3.900666084478    -0.589172968405
H     -4.073923974468    -1.059028952165     0.610100244875
H      3.176628290340     1.264181282666    -0.057843657683
H      4.843423169418     3.096421118414    -0.139710260584
H      4.107674254104     5.460486597349    -0.518284858574
H      1.674229771341     5.964065676843    -0.806360746587
H     -0.002453511303     4.145182504928    -0.713766767360
C     -1.164653571006     1.958044124956     1.271451196643
H     -1.159367302500     3.038356312053     1.174408225889
H     -2.075815783321     1.438217067191     0.995667032135
C     -0.162811169241     1.274525047756     1.956279402062
H     -0.286035047029     0.224345574864     2.180220196148
C      0.955458747296     1.929288073221     2.657253826683
O      1.886846069569     1.216921016696     3.113566324671
O      1.014783728487     3.334049100120     2.704499799225
C      2.216585615988     3.891368943864     3.253438948124
H      2.152509516928     5.000023805995     3.228691400860
H      2.355622278008     3.570529053396     4.310708104448
H      3.102697757189     3.584482819212     2.652743247895
Pd     0.129558429718     1.075217405673    -0.345360423861
C     -1.196234681322    -1.570979506347     0.320170881926
O     -0.028018160868    -2.106442051619     0.435794113111
O     -1.432897377626    -0.456186503560    -0.286156017026
C     -2.379640719590    -2.285462393895     1.010043079201
H     -1.985069162772    -2.722021975747     1.932467317696
C     -2.969528977610    -3.386159311777     0.155238004540
H     -3.790910914849    -3.883807820305     0.711263095400
H     -3.380862499531    -2.952397090631    -0.778893533119
H     -2.191136013062    -4.137138810139    -0.093171826539
N     -3.440851923494    -1.341799336508     1.347378767067
C     -3.318190568645    -0.579059663033     2.469491006464
O     -2.329621808867    -0.619145452327     3.240163103525
C     -4.433760173096     0.339392180301     2.786360689578
H     -4.816852284711     0.055534867993     3.780923600511
H     -4.026479356164     1.362611383012     2.814798006957
H     -5.237226852197     0.255622827850     2.033729611687
N      1.015210232682     0.401803767225    -2.102000261780
C      1.046097135852     1.232939250472    -3.189939287212
C      1.790157414832     0.894296637745    -4.299849920832
C      2.510720910585    -0.278014780934    -4.327006177323
C      2.461633441177    -1.096680869233    -3.230808009159
C      1.684257288666    -0.726874550479    -2.109805707841
H      0.486263136290     2.160817276251    -3.176412291220
H      1.811682214505     1.558892156117    -5.147746262998
H      3.103622264342    -0.547519808770    -5.197018271819
H      3.000516085338    -2.022343241032    -3.189265135003
O      1.725347439743    -1.583421366347    -1.129445893784
H      0.933075989389    -1.716132414832    -0.353814157734

