# STO-3G

title

0 1
C      1.861789490945     2.790539652730    -1.718437708881
C      3.192279425297     3.259940588711    -1.799888116744
C      3.559830757044     4.184988279189    -2.801406065485
C      2.604760993985     4.649139332461    -3.725079198012
C      1.278640530850     4.179612290405    -3.647407221087
C      0.908289248474     3.251550246380    -2.652564484640
H     -2.449045641619    -1.048881839052     2.034721085488
H      3.951090059363     2.913544049196    -1.099947950263
H      4.587233548997     4.539958322123    -2.855107343060
H      2.887685108824     5.363605020176    -4.494565474778
H      0.532691496578     4.527758455970    -4.359376825058
H     -0.117660977834     2.888128642923    -2.617811416833
C      1.859606282123     2.792186858832     1.390336557465
H      1.946230214721     2.125987413258     2.243503429076
H      2.772528108574     3.244874145813     1.020195663022
C      0.620002553483     3.241711490467     0.938186724515
H      0.568996972059     3.992854714674     0.165063044302
C     -0.659177875198     2.994070108228     1.626460087784
O     -1.706110819366     3.501412502596     1.148164005596
O     -0.658580633756     2.337144185748     2.868349030928
C     -1.940200754541     2.183000324117     3.493387485770
H     -1.817532900506     1.643561845874     4.458319729101
H     -2.401299894760     3.173711561017     3.705726840848
H     -2.623511938679     1.586698233567     2.846209704728
Pd     1.365639942969     1.439086950877    -0.321920006545
C     -0.194712417502    -0.365746111023     1.498847803699
O     -1.186090782038    -0.161498007456     0.686015410524
O      1.013230835565     0.012137909598     1.269665314546
C     -0.524047144305    -1.060383369344     2.829654460991
H     -0.130353847613    -0.459751241029     3.658249875803
C      0.079836271952    -2.447276737106     2.914636620665
H     -0.141903155930    -2.884815137481     3.910374293052
H     -0.374196701530    -3.092603281587     2.134797734577
H      1.179426375586    -2.400930049917     2.775549901758
N     -1.974189655053    -1.175821365978     2.926778767044
C     -2.612458365016    -1.168813431761     4.120341565476
O     -2.043443535937    -1.086614237027     5.236120803153
C     -4.085600262137    -1.244564155414     4.044998856930
H     -4.493849377080    -1.224450641886     5.070346474362
H     -4.440132456798    -0.377741795901     3.463636826324
H     -4.351568802988    -2.187734247793     3.537388737035
N      1.277573885796     0.062992027971    -1.894062866632
C      2.420625878803    -0.203915486305    -2.599854837926
C      2.353754522142    -0.893553108396    -3.791880191592
C      1.141130595696    -1.320051007039    -4.285422953443
C      0.012890728199    -1.050291777785    -3.558039950952
C      0.117322273469    -0.350005716761    -2.336374379565
H      3.378678870209     0.134716150857    -2.223209877211
H      3.258278649228    -1.091770339641    -4.343067786192
H      1.081012810553    -1.859531891725    -5.226967364192
H     -0.961007201919    -1.358541395415    -3.883325676766
O     -1.025372500392    -0.153011337559    -1.729704266054
H     -1.060660973774    -0.020390129778    -0.654624867368

