# STO-3G

title

0 1
C      1.079586590781     2.389346927865    -1.270017245802
C      2.082809928489     3.369642898305    -1.105687246944
C      2.146496967264     4.474068197084    -1.982556341079
C      1.209694872968     4.610638114804    -3.024297334350
C      0.207471852465     3.634184410783    -3.188101325881
C      0.143180476164     2.526189472118    -2.318528117674
H     -2.107313199207    -1.530865220549     3.287512198461
H      2.813172986180     3.289141638747    -0.302630042071
H      2.923209874483     5.223914067184    -1.844893645599
H      1.259192791090     5.463215981848    -3.697711552135
H     -0.522658396197     3.727896795527    -3.989981893578
H     -0.634342018392     1.778017027292    -2.464138754283
C      0.900613625822     1.945126456395     1.888871243504
H      1.475109074517     2.862848485743     1.815535291565
H      1.266097577832     1.183414702474     2.568338536067
C     -0.396362796168     1.862174871782     1.385677918919
H     -1.003034245088     0.989919475504     1.595324047634
C     -1.137265415002     2.996691161453     0.806157625121
O     -2.298141527848     2.799387691747     0.362620549920
O     -0.532266447429     4.264454371191     0.744757058017
C     -1.262914508147     5.273180323890     0.034418943432
H     -0.682258687470     6.220262168840     0.041036016291
H     -1.418617495413     4.972620225661    -1.026524596927
H     -2.248817522626     5.462673785995     0.516096090830
Pd     1.063468851568     0.793215800157    -0.065002169777
C      0.134318538072    -1.465011228546     1.667531475311
O     -0.925686173451    -1.512019406770     0.913271524786
O      1.240556090019    -0.914401023912     1.313969390131
C     -0.037146707541    -1.952729522433     3.121830077922
H      0.846551215590    -1.661797879329     3.693522670457
C     -0.257332076791    -3.444771219429     3.229613787584
H     -0.382836920593    -3.721211080021     4.296834579033
H     -1.179173133189    -3.724835765029     2.678419691948
H      0.610388867693    -3.991906539867     2.807987259134
N     -1.207701948403    -1.268050511595     3.675271498079
C     -1.073944454134    -0.085722372471     4.337714675306
O      0.017928224491     0.482816615819     4.574936296693
C     -2.338253684763     0.540781820851     4.774533916856
H     -2.104064403267     1.481583976057     5.302512608824
H     -2.946028060639     0.740101661450     3.875929317382
H     -2.855020669464    -0.165544303929     5.446983949184
N      1.383230894072    -0.364788497290    -1.761399112010
C      2.486725709017    -0.142109851069    -2.541093379990
C      2.618414363583    -0.785302756167    -3.753288101093
C      1.645296483250    -1.654020466910    -4.192806530833
C      0.553246366462    -1.864987180226    -3.394096040149
C      0.449717848755    -1.197204671068    -2.153103230919
H      3.255044382705     0.544962623774    -2.205912138193
H      3.487968759168    -0.598435270635    -4.361700390442
H      1.741258536997    -2.160007541454    -5.149814831203
H     -0.238949471187    -2.528349663706    -3.679485026153
O     -0.640452472351    -1.475870960193    -1.490374944102
H     -0.759332858097    -1.371612044771    -0.397785198085

