# STO-3G

title

0 1
C      1.592381768479     3.262973923418    -0.737044831211
C      2.634887462606     2.842422457872    -1.591108298157
C      3.310808917865     3.778403148989    -2.401606890279
C      2.947423122202     5.138957397103    -2.374052457658
C      1.902833555544     5.560663436447    -1.529370635958
C      1.229299214772     4.628928787775    -0.711020312492
H     -0.609992787950    -3.168845927454     0.809724095584
H      2.917407978334     1.792220503543    -1.641084231876
H      4.113179121273     3.440565290883    -3.054899221683
H      3.468987869947     5.857847112669    -3.001758279837
H      1.612585263910     6.609330902867    -1.501701340788
H      0.426208311061     4.978597558497    -0.062971592858
C      2.223468069185     1.820278431560     1.875717290919
H      2.100412490958     0.812193004440     2.261893215836
H      3.092870637188     1.986432802199     1.247638275319
C      1.432734290210     2.893140243079     2.300424643308
H      1.678889410937     3.889990076061     1.966035611711
C      0.454357960130     2.823790739928     3.400948276020
O     -0.236522548952     3.845334451126     3.652020249550
O      0.354546382097     1.657663820971     4.181223941019
C     -0.678391932064     1.657491683890     5.176175749035
H     -0.661601271924     0.691164846774     5.724446241348
H     -0.520036533612     2.477393607092     5.913179018647
H     -1.680516092037     1.771505030367     4.703295853001
Pd     0.561245178231     1.980578424052     0.405031076967
C     -0.344193255177    -0.518532232095     1.594554197988
O      0.802995843200    -0.953134259646     1.161759931680
O     -0.682372666903     0.723549454203     1.621591696878
C     -1.409739654701    -1.580119566748     1.945819771078
H     -2.381480301657    -1.084929411070     1.995336663195
C     -1.129966512395    -2.310626231507     3.239776964145
H     -1.925640244542    -3.063748758698     3.414886246480
H     -0.153251812484    -2.832173181552     3.168081845440
H     -1.107917539198    -1.593113071214     4.085073323237
N     -1.413521788048    -2.550189472879     0.847467076419
C     -2.042925291887    -2.212510769123    -0.320240939930
O     -2.743709828110    -1.183416407457    -0.472414740312
C     -1.896439638156    -3.152405913223    -1.453476251332
H     -2.909533960914    -3.469468804969    -1.750537428092
H     -1.409102753300    -2.602865538959    -2.274569897501
H     -1.292990476735    -4.029090965428    -1.160004226559
N     -0.149467476915     1.096865569099    -1.368908812106
C     -1.144567846771     1.692545969617    -2.095642659902
C     -1.406954443588     1.267613634289    -3.382370741368
C     -0.690961979408     0.229149742376    -3.935343557314
C      0.276418396770    -0.372582860835    -3.173377859782
C      0.506603912797     0.084499587643    -1.858300623401
H     -1.704286009828     2.516878305662    -1.669528324273
H     -2.185867183997     1.748824522683    -3.950181257830
H     -0.895439293071    -0.110875261885    -4.946941791351
H      0.858952199689    -1.195121019083    -3.536373847363
O      1.430204566450    -0.591927809453    -1.197136126076
H      1.298807613353    -0.641004269008    -0.149257323568

