# STO-3G

title

0 1
C      0.192424834372     2.518459137912    -0.767708201717
C      1.145676290988     3.397594156964    -1.330305017928
C      0.764655737363     4.306261250630    -2.340306041015
C     -0.566669830267     4.343359979183    -2.797109595583
C     -1.515581599953     3.463538352957    -2.242033443725
C     -1.138757713644     2.550881522461    -1.233786720830
H     -0.429850616789    -0.530134829034     2.150932428415
H      2.179245556907     3.396246716885    -0.985314180556
H      1.506388308711     4.979947023169    -2.764595847160
H     -0.859916431191     5.043009418310    -3.576091279517
H     -2.545097825740     3.477796536827    -2.594212261554
H     -1.883420749806     1.863915993496    -0.836148098957
C     -0.412366085872     2.142345794612     2.274678070130
H     -1.266052102587     2.654641204059     1.842644199743
H     -0.620700790708     1.259647497247     2.871921485699
C      0.861294889056     2.708957308716     2.329716366687
H      1.637422011799     2.191955324091     2.876358429817
C      1.172693479314     4.083813859601     1.903731146282
O      2.378068046921     4.438896200408     1.843479299583
O      0.134293388915     4.931229944662     1.480226067724
C      0.533126293037     6.218253578039     0.988907859493
H     -0.368963898069     6.788611210419     0.679315531796
H      1.060169983180     6.798922353770     1.779515799529
H      1.195668650599     6.114707574728     0.100172710014
Pd     0.786965658966     1.198863640232     0.619098011132
C      1.726547735161    -1.423155108356     2.000145409761
O      2.848392977731    -1.890128349760     1.716624959926
O      1.437912684621    -0.127277179208     2.172702190169
C      0.473250046169    -2.349213328160     2.233225146654
H      0.478426284784    -2.685117021412     3.280090143461
C      0.453853365004    -3.568848955125     1.336115595091
H     -0.470420184429    -4.157449819393     1.507494749101
H      0.502092261537    -3.272602941127     0.271746681567
H      1.328915893776    -4.212485859530     1.563398205942
N     -0.726070077012    -1.503583928912     1.977631226381
C     -1.979206783346    -1.874176121000     2.455612887967
O     -2.258600210249    -2.972585185698     2.960692932461
C     -3.053789934192    -0.870489104477     2.283038543372
H     -3.429517124221    -0.609262379162     3.286861329070
H     -2.676347359338     0.020772209267     1.757236704853
H     -3.857274612763    -1.343332895142     1.690538339666
N      1.105974675616    -0.126811553400    -0.971500896828
C      2.236687401004     0.057386033470    -1.722678552254
C      2.379313955864    -0.600156609509    -2.927001565909
C      1.396037400700    -1.452903981001    -3.377729946819
C      0.287619167689    -1.637667749462    -2.593321184277
C      0.186444636434    -0.954458140861    -1.363699316724
H      3.009814481548     0.733943246203    -1.377460195480
H      3.268490446407    -0.443211641669    -3.515414694645
H      1.501548127208    -1.973408901619    -4.325925990433
H     -0.505532684596    -2.299895086590    -2.877763423071
O     -0.907016742534    -1.246282796032    -0.673655169521
H     -0.858923872990    -1.228032343081     0.356510320077

