# STO-3G

title

0 1
C      1.800877468962     2.446509338607     0.059325491272
C      1.616914840452     3.478957683958     0.997668075604
C      2.665612690693     4.390168775258     1.248592952294
C      3.893653898777     4.276692654979     0.569691379685
C      4.083192126613     3.231109867545    -0.354898525977
C      3.043654203285     2.310841582032    -0.599490892472
H      0.962027174034    -1.247599614001     4.155141420414
H      0.696407820421     3.578052254930     1.562649787774
H      2.518327923908     5.181211579128     1.981222716841
H      4.695778356638     4.984142879731     0.767817751978
H      5.034789957275     3.119596092163    -0.870582390733
H      3.221249111396     1.477511740066    -1.279441898268
C     -1.207485028634     1.801352050803     0.478823499217
H     -1.898288252312     0.960309732028     0.501275247904
H     -0.739326812566     2.030968322264     1.431139088902
C     -1.127239379846     2.655153381768    -0.641214956975
H     -0.559130049562     3.569397359236    -0.568539575817
C     -2.043658857902     2.584245567328    -1.792272962797
O     -1.789476691698     3.284950149917    -2.806322822909
O     -3.115859496179     1.675900257880    -1.778277905141
C     -3.936236537107     1.648766294607    -2.954038944642
H     -4.735443323183     0.887405233673    -2.824427445060
H     -4.418856999047     2.637812187120    -3.122838175973
H     -3.337455815961     1.369952490889    -3.849876791044
Pd     0.512202331673     1.107984890709    -0.705686061243
C      1.295038690041    -0.709148953610     1.292495676276
O      0.098154070751    -1.167033708251     1.462342981986
O      1.853587495931    -0.467500037093     0.148084229220
C      2.061979244443    -0.328677782154     2.590174362655
H      2.429544559543     0.691191542566     2.435858784210
C      3.237798578558    -1.237760069413     2.869962087558
H      3.758747156637    -0.893258672743     3.787173081506
H      2.875430983211    -2.273423460959     3.031312821193
H      3.948157768381    -1.219082062271     2.017809836758
N      1.170237299530    -0.346256966755     3.743880824111
C      0.277461576788     0.658992094816     3.936971311523
O      0.220638853722     1.708686659855     3.251233039318
C     -0.676107404740     0.463226146371     5.048144544754
H     -1.329221684442     1.350166177426     5.117886594200
H     -1.269249203219    -0.439525854846     4.824680993573
H     -0.095775446569     0.331327198956     5.977593188852
N     -0.654807448422    -0.246613836168    -1.923015084952
C     -0.546132722989    -0.029954413738    -3.272199911586
C     -1.326074741677    -0.744491257010    -4.157247515179
C     -2.220023942210    -1.685807196863    -3.698551988664
C     -2.303979352769    -1.897254644926    -2.349111568179
C     -1.477802962152    -1.158808240164    -1.471705375212
H      0.144193770303     0.719031926518    -3.642741484375
H     -1.233577810524    -0.559774254462    -5.215124280502
H     -2.838757702969    -2.251066815192    -4.390368010516
H     -2.968249134409    -2.623958790772    -1.925781124686
O     -1.616251987284    -1.476450677849    -0.209386408700
H     -0.809834449962    -1.287245599005     0.515172534825

