# STO-3G

title

0 1
C      1.508590656457     2.492440050481    -0.498208943403
C      2.879646353726     2.171471568002    -0.379205562892
C      3.862015598034     3.168613867432    -0.546099963045
C      3.487791377188     4.494100727299    -0.842865380618
C      2.123570093759     4.816299316233    -0.969672383576
C      1.136141640466     3.821923121874    -0.797576137145
H     -4.207039767825    -1.013324713400     0.829299608547
H      3.187669225668     1.150652804043    -0.158203543886
H      4.913545193362     2.905287696509    -0.447408205546
H      4.247293592584     5.261461405060    -0.974037925546
H      1.823046974026     5.837382178060    -1.197181817337
H      0.087868642232     4.098368488643    -0.894924605241
C     -1.063121909569     2.113670323281     1.285823147868
H     -1.007777825267     3.182245756996     1.108416976061
H     -2.010598396038     1.624265676388     1.091054741953
C     -0.068578259877     1.429365763331     1.980187638156
H     -0.237198787236     0.405868936845     2.283794329952
C      1.108793263435     2.072721877056     2.588765106413
O      2.020009117707     1.346636072273     3.063905105966
O      1.240955632941     3.472025899475     2.529213289910
C      2.489423396703     4.003256043210     2.993195056814
H      2.480235125694     5.109007127254     2.887781412255
H      2.652382846390     3.753514268730     4.066086919417
H      3.335311350912     3.606931614489     2.386947359359
Pd     0.122764854026     1.060726442189    -0.309371024845
C     -1.268743131527    -1.483443224122     0.565586494328
O     -0.108599635131    -2.032519058315     0.702593524014
O     -1.491536083370    -0.400095819625    -0.098724853346
C     -2.455674958243    -2.145904802943     1.300848059907
H     -2.062619261609    -2.506033421830     2.256995674169
C     -3.031541947379    -3.316336570288     0.533528527963
H     -3.854399071963    -3.773047491606     1.121557804903
H     -3.437251902991    -2.962455116611    -0.436032440955
H     -2.246461313074    -4.079700270416     0.352934927539
N     -3.522992630745    -1.185321103872     1.554905504216
C     -3.383243684608    -0.285367855551     2.565107900860
O     -2.382329093005    -0.215760339681     3.316881172326
C     -4.508866945744     0.654055085657     2.747823341242
H     -4.275267908762     1.324361037926     3.593734980882
H     -4.631121657142     1.227110095283     1.814751587424
H     -5.414178725984     0.060209122681     2.962808380291
N      0.917654651836     0.229934963355    -2.043890976638
C      0.928385262401     0.974892547545    -3.192887167544
C      1.623440827410     0.533343384012    -4.298462706035
C      2.314719572471    -0.656245043213    -4.260127253308
C      2.286006366910    -1.387771523097    -3.103196766822
C      1.558706761015    -0.913217594538    -1.988196738822
H      0.391815245572     1.915734073319    -3.231132036299
H      1.629944224171     1.130838277287    -5.195145673117
H      2.869182699812    -1.006538484836    -5.126691870716
H      2.803885461870    -2.321516822582    -3.009039071948
O      1.614196826969    -1.693693275415    -0.946049829388
H      0.846318660947    -1.735670097925    -0.139720749571

