# STO-3G

title

0 1
C      1.700788661392     2.909520647429    -0.631340667634
C      3.065824163241     2.608275733500    -0.435620445873
C      4.050519497013     3.588151685087    -0.680573963457
C      3.682961259452     4.869694723511    -1.134832795580
C      2.322892519107     5.168067690767    -1.343547565204
C      1.333134622003     4.193863716482    -1.092106556739
H     -1.863443962049    -0.333368328795     3.014085020841
H      3.370241831511     1.614344651667    -0.112551311256
H      5.099404490799     3.343714792078    -0.524603668044
H      4.444774262879     5.621968227155    -1.325654614255
H      2.028544805680     6.154665005455    -1.696673121925
H      0.286845312291     4.448966571279    -1.256864555555
C      0.288120427482     1.809216314281     1.927030679834
H     -0.128664520024     0.907273127486     2.354599741043
H      1.338761958208     1.981876292172     2.139113752996
C     -0.492207067187     2.813505977109     1.363251260778
H     -0.019810077364     3.747690050840     1.105133689283
C     -1.964282067319     2.834896492701     1.295993474355
O     -2.511220446639     3.738606469899     0.610181103143
O     -2.722522816915     1.842807176838     1.934750589075
C     -4.146805387978     1.975783818994     1.840898198896
H     -4.627591137542     1.146945194800     2.404265756211
H     -4.484674824696     2.937928195922     2.288043035103
H     -4.480127641199     1.918477005750     0.780326565015
Pd     0.326369406246     1.483574180791    -0.321315886147
C     -0.700151902882    -1.176060568493     0.619975751167
O      0.511848446807    -1.609080971100     0.494272377708
O     -1.150965832791    -0.081414338677     0.100552669795
C     -1.563825093051    -1.940802045044     1.659448231034
H     -1.191838209006    -2.966612219785     1.725934080884
C     -3.039745885727    -1.966137504510     1.333697158846
H     -3.584916421886    -2.501302281640     2.138260271193
H     -3.424263946503    -0.927167234156     1.274881304211
H     -3.210524787684    -2.479189827787     0.365553588504
N     -1.378341622308    -1.224748635233     2.929975342450
C     -0.337854197396    -1.321995813144     3.814719259178
O     -0.045454694374    -0.398752758130     4.610760908291
C      0.433561112004    -2.582499370053     3.839300048368
H      0.958869306796    -2.694140971885     2.876697867164
H      1.168996673875    -2.517912395106     4.660627460436
H     -0.267293694075    -3.414237524358     4.024718908437
N      0.909340606221     0.742365316598    -2.178622458600
C      0.598917046560     1.462914281314    -3.300557328417
C      1.177934813396     1.141738346908    -4.510114456298
C      2.072835652978     0.099084731275    -4.602195024749
C      2.360638970544    -0.613373172915    -3.468131871651
C      1.743160425639    -0.264400229483    -2.247004490007
H     -0.097348142112     2.290910154885    -3.234514330437
H      0.932902302175     1.719825479382    -5.386009509020
H      2.537516878226    -0.153624827264    -5.551581245512
H      3.046770101322    -1.436529003735    -3.472974686637
O      2.089254105371    -1.007546211082    -1.228993359525
H      1.387870735750    -1.172055139194    -0.396397402154

