# STO-3G

title

0 1
C      1.774837952440     2.860444401783    -0.750043120167
C      3.156536175607     2.574396941654    -0.721606100953
C      4.096929773897     3.598453044728    -0.960113147743
C      3.666663333701     4.909454981089    -1.242343264455
C      2.288295093371     5.193280193487    -1.284838444044
C      1.343139952186     4.174482304754    -1.038675451088
H      0.700202171155    -1.695093798303     2.515212534904
H      3.507157697158     1.561037856666    -0.534515171250
H      5.159665004969     3.365825059036    -0.933353081981
H      4.394317829612     5.695859963766    -1.428689066915
H      1.945354771898     6.202661359077    -1.504261420179
H      0.282072407013     4.418911336564    -1.071329647666
C      0.659060358831     1.454818021128     1.815811963615
H      0.275172706994     0.516224381330     2.191132433977
H      1.729564064144     1.603715228605     1.920677375596
C     -0.172715215478     2.507682309877     1.456347403298
H      0.271378105782     3.466441782927     1.241029882449
C     -1.641083197215     2.525646107919     1.573479862977
O     -2.261326320020     3.488081198820     1.049723623955
O     -2.325724915501     1.485553117485     2.228273759248
C     -3.749299786827     1.646526081630     2.324242945524
H     -4.187706096695     0.786864690579     2.873480500290
H     -4.005604935134     2.576105797825     2.882149427715
H     -4.211862863612     1.683875320297     1.311673816313
Pd     0.457535656284     1.379467875354    -0.455517546561
C     -0.346938836500    -1.331481346859     0.400475408287
O      0.905912413756    -1.612724398855     0.200389084795
O     -0.945215116238    -0.292222615303    -0.070138391100
C     -0.996459466894    -2.234034055915     1.488599787467
H     -0.720332274957    -3.276071832513     1.287717018140
C     -2.500493774513    -2.108391369740     1.557931235345
H     -2.905696845995    -2.772968745313     2.345030334267
H     -2.778311947720    -1.055018958731     1.747031557834
H     -2.940672737218    -2.414483238505     0.586671327719
N     -0.301574454879    -1.765383446392     2.712328047328
C     -0.570388136133    -1.240784005332     3.946787265697
O      0.318544441985    -0.634691642928     4.595256594282
C     -1.893358055779    -1.451748148484     4.565238583104
H     -1.839452277353    -1.100313087792     5.611052818555
H     -2.631846849396    -0.850097068867     4.020553200435
H     -2.117207560822    -2.531047803216     4.547358297596
N      0.877507738078     0.822508592165    -2.415261219468
C      0.427942677029     1.614108996635    -3.437576259896
C      0.867944227519     1.395261117599    -4.725986024994
C      1.763368937245     0.384430176646    -4.996537652933
C      2.193552073240    -0.398555073195    -3.958264875829
C      1.717235260325    -0.152519294585    -2.651920925882
H     -0.270163689645     2.417019901007    -3.231107450709
H      0.513508994592     2.027938707029    -5.523063202059
H      2.119083521716     0.211566555403    -6.008794736107
H      2.889812772597    -1.200736352353    -4.101129661540
O      2.198605650373    -0.955924582638    -1.738746974247
H      1.641640439209    -1.148674816528    -0.819512574449

