# STO-3G

title

0 1
C      1.243305314596     2.828882339787    -0.457323568855
C      2.644020512439     2.990007860423    -0.522157557731
C      3.202463431501     4.256748911421    -0.792163631931
C      2.369041322549     5.371381380663    -1.008746584296
C      0.971141092280     5.212637107693    -0.953995960394
C      0.407949187669     3.947456751252    -0.682157014431
H     -2.581184787514    -2.407088472833     1.694434128215
H      3.303834003266     2.136793678624    -0.375815828183
H      4.284326576796     4.367144389531    -0.834714129699
H      2.803149718511     6.347213033928    -1.213665567448
H      0.319489145267     6.069034398863    -1.115625147363
H     -0.675853634617     3.851696521731    -0.636736156817
C      1.043042804386     0.960534336559     2.009431078028
H      1.903677776009     1.608659065295     2.142390135197
H      1.217911168814    -0.105403153589     2.113021966834
C     -0.258739562320     1.459075127406     1.990484991584
H     -1.078711879478     0.757030129321     1.992041130950
C     -0.626187255210     2.858244600049     2.268466410268
O      0.261538113195     3.695045852445     2.578298641594
O     -1.966588237011     3.243806722268     2.097414826303
C     -2.256769022733     4.624643528816     2.358602807656
H     -3.339670273222     4.812602864859     2.193838357642
H     -2.015752410840     4.886520335450     3.414219534443
H     -1.678936621255     5.287845901083     1.674914170758
Pd     0.431719069503     1.025803720871    -0.162851499451
C      0.116356201184    -1.914010114405     0.499959862013
O      1.358672406224    -2.084769434490     0.194592984334
O     -0.578280070681    -0.869066556971     0.198087894880
C     -0.561367048760    -3.016854551079     1.344796277893
H      0.205884591375    -3.398298855822     2.025841641630
C     -1.081169546605    -4.158577160573     0.498377033281
H     -1.526679439526    -4.932257660559     1.157466539124
H     -1.863217824904    -3.783193396973    -0.192736431787
H     -0.253036503787    -4.610833327937    -0.085707370707
N     -1.667428029706    -2.473218091508     2.124234540579
C     -1.395568516425    -1.718200355220     3.222416445736
O     -0.240078303849    -1.465105420292     3.637598433514
C     -2.570086685911    -1.179985437063     3.939065543822
H     -3.186482453595    -2.036406526057     4.260573972165
H     -2.215588885157    -0.606532229534     4.813302613933
H     -3.133311756265    -0.530451122621     3.247473460283
N      0.816845947446     0.666170222424    -2.183505907793
C      0.234740874809     1.453357367592    -3.140737449444
C      0.668770244028     1.389527865366    -4.447834420038
C      1.690710886149     0.539006109819    -4.804366809371
C      2.252822897585    -0.245317262712    -3.832829606793
C      1.780411995121    -0.163795958918    -2.503606605756
H     -0.567544571924     2.129210029428    -2.869303327740
H      0.207905033700     2.018493589585    -5.191516602506
H      2.041272345513     0.489544465070    -5.831854653425
H      3.050262152799    -0.928889544261    -4.046066980983
O      2.394330988159    -0.955881832039    -1.667649449364
H      1.920722841300    -1.368004851499    -0.751290872891

