# STO-3G

title

0 1
C      1.923917715806     3.113061981836    -0.875103208472
C      3.285889881866     2.847016211401    -1.133642941061
C      4.121883799067     3.859395334385    -1.649540576052
C      3.603411790976     5.140016423579    -1.923210614763
C      2.242771779009     5.405350725015    -1.676378935876
C      1.404503212088     4.398170350849    -1.152248606419
H     -2.401880336027    -0.352938286219     1.548715685363
H      3.697953353235     1.855441690451    -0.953479034015
H      5.170360537971     3.641669564784    -1.843642763423
H      4.249352616410     5.917633992955    -2.324099152960
H      1.832359059992     6.391473665010    -1.885326581484
H      0.356131594165     4.628129491844    -0.964716126675
C      1.429731451275     1.830890382793     1.926945309182
H      1.161790428101     0.889862415490     2.398144381103
H      2.489116991176     1.995469437212     1.757837887365
C      0.508938160265     2.860567644551     1.746005063471
H      0.854990958529     3.818008367823     1.390006446275
C     -0.869612889404     2.857499963675     2.260469662102
O     -1.636040962354     3.787145877858     1.895051234129
O     -1.216077102601     1.983290575029     3.301956050887
C     -2.575816866986     2.063942671541     3.751953937742
H     -2.741698040357     1.325341752299     4.564931722183
H     -2.807862226629     3.076734594651     4.150211651648
H     -3.281003666832     1.817450936178     2.925009682970
Pd     0.712636919088     1.665178538236    -0.199098766199
C     -0.151880666110    -0.994067980213     0.862554586442
O      1.072298006787    -1.349694071692     0.684570573360
O     -0.640426030082     0.156622340955     0.520573273758
C     -1.119921792173    -1.990529552833     1.528623551533
H     -0.557349935417    -2.519192177924     2.306227655512
C     -1.634762240909    -3.000219471188     0.520821233436
H     -2.290909263467    -3.737889510602     1.023301856310
H     -2.231043977569    -2.471131849321    -0.252402261295
H     -0.789107138368    -3.534802157528     0.040037911657
N     -2.251036225092    -1.228946725958     2.049527833695
C     -3.047945553466    -1.443848498142     3.128426438350
O     -3.990874979363    -0.679152274358     3.445275388904
C     -2.761497144624    -2.627704266380     3.971326656165
H     -2.850908481976    -3.531164123510     3.348905088374
H     -1.750185513162    -2.511977438368     4.392197968806
H     -3.504204842314    -2.661883200473     4.789255667627
N      0.837181432012     0.853117983066    -2.117160598776
C      0.254248102496     1.508932107065    -3.167973442676
C      0.550872054964     1.137531849200    -4.462636177081
C      1.432094532763     0.108589730301    -4.710797995974
C      1.995373931534    -0.537794343216    -3.641923245371
C      1.662450757359    -0.137771761579    -2.329868623597
H     -0.433440355211     2.325409112884    -2.980048703239
H      0.091855565271     1.663693582784    -5.283656037303
H      1.672953836015    -0.184566661426    -5.729233191773
H      2.686141946895    -1.347430758866    -3.767585539444
O      2.261399145813    -0.824494366008    -1.385933403030
H      1.802729384077    -0.926557129612    -0.420722922468

