# STO-3G

title

0 1
C      0.799311376148     2.611467607122    -1.527429203692
C      1.671631521716     3.717428002160    -1.434432674667
C      1.634997675365     4.732080324269    -2.415568564900
C      0.729633035494     4.651409322458    -3.490065534246
C     -0.138577540646     3.546054570930    -3.585192454072
C     -0.101107315139     2.526092410924    -2.612864477399
H      0.778419289542     0.041419617025     3.313659454301
H      2.375747521354     3.807370512479    -0.609771997814
H      2.306404629738     5.584209805345    -2.330748754446
H      0.699596462829     5.437920407724    -4.240311645891
H     -0.839198410851     3.471429213125    -4.414314282200
H     -0.768180777970     1.671451290370    -2.710369074443
C      0.603856530329     2.500632977806     1.622289679860
H      1.059602386885     3.461625481732     1.408742068196
H      1.116411999637     1.872987363522     2.342789436023
C     -0.689970363532     2.202699019139     1.199764254090
H     -1.175159293020     1.300862241874     1.545034630828
C     -1.579599393945     3.151510042084     0.506104971486
O     -1.215266669485     4.344131341952     0.331238022142
O     -2.802566633204     2.676818853603     0.004245921051
C     -3.571000334563     3.619025152471    -0.757369043259
H     -4.507999405892     3.134564195894    -1.107079327300
H     -3.846381221582     4.500823828606    -0.135037445047
H     -3.001148761400     3.962416213216    -1.651403842955
Pd     0.829200263630     1.138627550034    -0.177070914781
C     -0.100562160867    -1.266154553483     1.589109586082
O     -0.798228846009    -1.812096308352     0.657840074151
O      0.799326032755    -0.361263759831     1.391086028905
C     -0.372914155351    -1.657831048036     3.067979871056
H     -0.028535712569    -2.694038446404     3.199704065000
C     -1.851116609742    -1.574122953885     3.400250473012
H     -2.030379066843    -1.890093996256     4.446365367807
H     -2.194315274276    -0.525020026957     3.288434869788
H     -2.438232220001    -2.230682247901     2.724646031773
N      0.356356526111    -0.690448373238     3.884403551366
C      0.696893841115    -0.614081393794     5.196774261751
O      1.307269305331     0.380163526684     5.662176132496
C      0.358582279342    -1.731918000640     6.106679795867
H      1.292411032193    -2.030241100013     6.612977925485
H     -0.361006263396    -1.343298668025     6.845875058478
H     -0.058664671114    -2.590743375459     5.562397855396
N      1.609614522918    -0.073706046580    -1.677026939493
C      2.775538512860     0.323320127942    -2.277314137297
C      3.230181497965    -0.324795900492    -3.405679919638
C      2.520415992770    -1.374036430412    -3.942599511394
C      1.363379312116    -1.760990996715    -3.321428552854
C      0.928327889781    -1.085449592796    -2.158508308539
H      3.339679800599     1.152469423609    -1.866404991440
H      4.144837483609     0.001764349546    -3.872708099744
H      2.870871479879    -1.884440785675    -4.835773498213
H      0.767911671113    -2.573049288610    -3.688319654220
O     -0.185658483236    -1.548003469035    -1.663890350646
H     -0.466731058341    -1.559700958833    -0.596969189028

