# STO-3G

title

0 1
C      0.891720813150     2.591199817273    -1.203900318050
C      1.778887913720     3.657928409703    -0.942870205365
C      1.904697869954     4.716774320699    -1.868162008850
C      1.145597702214     4.720360702318    -3.053455830982
C      0.260161171378     3.656117355941    -3.314528016103
C      0.136784392469     2.592176374665    -2.397913801703
H     -1.211674966558     0.235822261615     3.879315273651
H      2.368767428853     3.682725033822    -0.028648049132
H      2.586231871796     5.537747307830    -1.654312779351
H      1.239359207046     5.541270353645    -3.760500438218
H     -0.330621891295     3.648700445473    -4.228332535552
H     -0.543624980219     1.772019942804    -2.619662011568
C      0.209888162422     2.325266888267     1.879259399091
H      0.674253307013     3.303111542699     1.800253422920
H      0.595217429140     1.673883716805     2.653690233073
C     -0.984983532498     2.047274912599     1.216642021158
H     -1.513651555696     1.120883758953     1.399165195966
C     -1.756248787244     3.035500120203     0.439964336856
O     -1.379203753299     4.236474124110     0.397789098628
O     -2.856960101597     2.586606080920    -0.308387909606
C     -3.499265351809     3.574473813044    -1.126598577314
H     -4.346996001204     3.107000111560    -1.672181937346
H     -3.902138645358     4.404296526458    -0.502354751679
H     -2.787433866330     3.989428956159    -1.876784521602
Pd     0.757403140533     1.057902726201     0.071063007068
C     -0.418058676802    -1.240721902245     1.666616555544
O     -1.265115625144    -1.437464151218     0.711564797397
O      0.685478576165    -0.583940760992     1.521540968743
C     -0.741274951917    -1.685763581220     3.124784302914
H     -0.053088228629    -2.497875822612     3.387310860933
C     -2.156534697259    -2.183922546038     3.314817275362
H     -2.310992433096    -2.462521371383     4.377795927316
H     -2.874014746704    -1.379764048735     3.051044631767
H     -2.343422324565    -3.069001192748     2.672324170196
N     -0.542583205090    -0.524244673540     3.994228937137
C      0.614908463032    -0.090765252847     4.576695623907
O      0.782984964228     1.099337884887     4.934219854727
C      1.686267936940    -1.081518107734     4.813362135498
H      2.061621519138    -1.430144670381     3.837439887927
H      2.498787474348    -0.580510072912     5.368999614734
H      1.270003950765    -1.905656991491     5.417826932971
N      1.520984550085    -0.136956815800    -1.445776702219
C      2.750807309075     0.153391668993    -1.973922230967
C      3.203400467221    -0.524502500105    -3.085635302159
C      2.425517382844    -1.493058389497    -3.678268151354
C      1.200778741542    -1.768178226593    -3.130685202886
C      0.768126913257    -1.062683825986    -1.985508328833
H      3.367305795145     0.919469842603    -1.517993786710
H      4.170208167536    -0.284011262016    -3.496652622028
H      2.774216383058    -2.025568004016    -4.559179358593
H      0.547282136447    -2.508645969604    -3.547332271692
O     -0.421809251602    -1.408593666679    -1.570933564688
H     -0.794044336432    -1.294564141684    -0.552316254199

