# STO-3G

title

0 1
C      1.520070086509     2.857742882512    -1.116225966363
C      2.614520636253     3.562927653545    -0.568552077118
C      3.261229920128     4.564741535912    -1.324437748357
C      2.815749181732     4.873565606974    -2.623710588222
C      1.720534305663     4.173466519846    -3.167422122059
C      1.075773836450     3.166253307590    -2.420014673435
H     -1.546654752499     0.508190066070     3.770981006923
H      2.973133769182     3.341154410557     0.435142900521
H      4.105067509485     5.101635886308    -0.895406951714
H      3.310894309180     5.649152584985    -3.203446464685
H      1.365417752906     4.406616613196    -4.169606455721
H      0.234482731917     2.629639802299    -2.855392360189
C      0.023221773454     2.626374305440     1.740680590836
H     -0.365292861793     1.865461304417     2.402226074709
H      0.927488880595     3.113609014544     2.089925307606
C     -0.685284597055     3.132047485026     0.656159225261
H     -0.305424155726     3.993268300915     0.131537670441
C     -2.042808590614     2.729001776739     0.250170537082
O     -2.551086806356     3.283724458302    -0.758610858878
O     -2.638548842648     1.602519693045     0.839181043808
C     -3.857194259788     1.150621821464     0.230470593947
H     -4.230304468608     0.253912625962     0.768521030461
H     -4.641814428433     1.939219549057     0.278078779308
H     -3.683664834054     0.859752517562    -0.831005686829
Pd     0.704830675603     1.382926971916    -0.034543957657
C     -0.921045927619    -0.919568401427     1.393746442848
O     -1.668845037871    -1.232784083133     0.386015288172
O      0.155768961751    -0.223982739534     1.306478192675
C     -1.296574535390    -1.373454987654     2.839536687591
H     -0.728938581708    -2.289492476768     3.048529863042
C     -2.765199468989    -1.686006990793     3.020530506801
H     -2.945681660137    -2.019077891600     4.063487455140
H     -3.362405700229    -0.770793076921     2.834616911020
H     -3.081318918209    -2.485887925948     2.319709990228
N     -0.937420167760    -0.309034489799     3.777788587832
C      0.312022396079     0.010593588518     4.237837388032
O      0.613996683460     1.164000576354     4.622931195888
C      1.309055829241    -1.076987154055     4.334815462335
H      2.217016499545    -0.670629946209     4.814743788591
H      0.876891472097    -1.874709184530     4.961296548634
H      1.549067890837    -1.433378138397     3.319451335077
N      1.357686200256     0.063668963182    -1.506043127943
C      2.658092461548     0.100363555200    -1.936151329868
C      3.037178693279    -0.606265548904    -3.057319506639
C      2.117574883032    -1.352312899558    -3.757940325982
C      0.826545675540    -1.386183885627    -3.303780156916
C      0.468084193143    -0.663270789340    -2.142516775006
H      3.390151882419     0.689948080693    -1.396673203907
H      4.060862024714    -0.561621051166    -3.391116602222
H      2.409594229488    -1.903822177387    -4.647717260984
H      0.064976199638    -1.951331585226    -3.803137714525
O     -0.787756591816    -0.777056741090    -1.809431273390
H     -1.193806234958    -0.891933082375    -0.762655721257

