# STO-3G

title

0 1
C      2.026946519844     2.853246928412    -0.808911394143
C      3.062093320585     2.166008972803    -1.479110647992
C      3.944518684499     2.864698973582    -2.329380492935
C      3.797426182438     4.251887280138    -2.524385346813
C      2.762108997357     4.939190440902    -1.862361487976
C      1.881529541104     4.245528109173    -1.005020542558
H     -1.364448754555    -2.853981170625     1.012577269365
H      3.180157457980     1.090854010328    -1.355766040729
H      4.737968055215     2.322260266738    -2.840156242629
H      4.477719009792     4.787590182841    -3.182443508193
H      2.638555337500     6.010821953634    -2.007256775410
H      1.089328440490     4.798642674529    -0.501448055500
C      2.194309431816     1.723651002107     2.014839254889
H      1.877336458181     0.811043044342     2.512268574341
H      3.129275390798     1.668365502716     1.466437044691
C      1.552726847615     2.951751125196     2.210602720378
H      1.984093878928     3.842638548620     1.778939715009
C      0.486184110658     3.186586986086     3.200686542557
O     -0.049739822843     4.324494405699     3.243769423432
O      0.135075612351     2.172698095492     4.110050331341
C     -0.967953951652     2.465953048027     4.978405601631
H     -1.154411827239     1.595512620961     5.643434564558
H     -0.745748172674     3.350464708552     5.617696451977
H     -1.893389044388     2.656924855889     4.388534533756
Pd     0.710238058448     1.913370032546     0.372499707466
C     -0.701291447544    -0.238614803427     1.724625649692
O      0.400501246132    -0.891467492796     1.500025304760
O     -0.824735074802     1.037422296410     1.597856379904
C     -1.977325299826    -1.073405957563     1.981090103060
H     -2.842674099650    -0.414153371648     1.888231635025
C     -1.989072468962    -1.768036482540     3.323700750963
H     -2.922331675060    -2.359904885650     3.421836220764
H     -1.120449661443    -2.454838642800     3.394188936294
H     -1.939015723708    -1.019127863770     4.140167243056
N     -2.022247740356    -2.086273103950     0.923196001287
C     -2.428087788463    -1.723333829427    -0.331113921218
O     -2.934430080904    -0.614658733328    -0.625305531290
C     -2.259796840974    -2.756701298568    -1.374086524340
H     -2.843125653347    -3.640657025193    -1.067226985099
H     -2.631976670484    -2.350967649077    -2.330469059909
H     -1.185899841946    -3.000198392268    -1.447778397986
N      0.027658343470     0.886176610486    -1.338209732439
C     -0.815378161988     1.493800733692    -2.229117896497
C     -1.019614949564     0.935234412903    -3.475044121660
C     -0.403236282393    -0.246778481749    -3.820885822013
C      0.403402958226    -0.855158458879    -2.894851719775
C      0.576299055259    -0.257438520688    -1.628422700766
H     -1.294239933375     2.429796318337    -1.966577593291
H     -1.676420719520     1.426635732167    -4.173365688978
H     -0.563243085380    -0.692104397717    -4.799019093419
H      0.895957223732    -1.785840538216    -3.091386916902
O      1.332787394001    -0.951328194229    -0.792405120847
H      1.091785314738    -0.838161075040     0.227354142667

