# STO-3G

title

0 1
C      0.933404731004     3.208904960415    -1.744384662291
C      2.283796370728     3.630257351946    -1.652295297307
C      2.824684727954     4.536897265152    -2.585095929455
C      2.031685059804     5.030208874322    -3.641186361127
C      0.694974137620     4.610128261083    -3.756077295176
C      0.147040074217     3.712215549500    -2.812803775163
H      0.343296778242    -0.130507828407     2.987388912559
H      2.920622512383     3.247485253927    -0.857440347693
H      3.862604211500     4.850224296019    -2.492519719669
H      2.452297575645     5.724119115941    -4.364842415568
H      0.074625507636     4.973558098283    -4.572746221929
H     -0.893807038674     3.410045949511    -2.930722509565
C     -0.542032765521     3.608268016168     0.944185858035
H     -0.541287866529     3.152688047258     1.929667506233
H      0.178273983802     4.397670219370     0.754006003869
C     -1.561643656542     3.350100985896     0.025212318547
H     -1.583730133359     3.913329956769    -0.895350086144
C     -2.793840640153     2.588819928418     0.304946697219
O     -3.667667686903     2.530531602977    -0.599057939791
O     -3.057097505382     2.133815522388     1.609002430619
C     -4.266683622104     1.379888627326     1.771357310127
H     -4.360716734835     1.056982558795     2.830048757834
H     -5.156869226672     1.998018518121     1.515511834010
H     -4.252742932743     0.469042595438     1.129288301066
Pd     0.214480945372     1.955260639095    -0.321511240730
C     -1.115991131800    -0.334482146574     0.993778400014
O     -1.844927326768    -0.452673580597    -0.021675439208
O     -0.376036642067     0.743129951867     1.274000896052
C     -0.940442527845    -1.461453465910     2.044382761929
H     -0.761890167511    -2.408340197955     1.523795391318
C     -2.153534910729    -1.611182014998     2.935752797722
H     -1.989019985435    -2.451389643063     3.641660573761
H     -2.295349127159    -0.677348030355     3.517072370441
H     -3.055687905377    -1.817659683339     2.323953289678
N      0.212513237564    -1.134701067670     2.886230844660
C      1.176314151286    -2.044646718359     3.172266380006
O      1.184097159738    -3.235061663739     2.772784222687
C      2.303227420996    -1.566656837323     4.005356631507
H      3.224987398886    -1.669243480081     3.410554635588
H      2.142992572998    -0.517095766385     4.304272929215
H      2.351116650008    -2.210928017462     4.899992075983
N      1.441255762333     0.350770228175    -0.926983765712
C      2.056921307456    -0.372090003365     0.063372254303
C      2.618984965478    -1.598514538020    -0.225437354198
C      2.572432588693    -2.106507573281    -1.504846734646
C      1.975583339480    -1.351310539161    -2.480513911574
C      1.406778032166    -0.109569127260    -2.138434587745
H      2.106016447252     0.020393426281     1.071790018089
H      3.064061741096    -2.179822752357     0.566730819534
H      2.997736102510    -3.080249178062    -1.733433129069
H      1.901259280006    -1.688193758462    -3.495214032966
O      0.834217086269     0.523915966583    -3.153052419611
H      0.527178311118     1.432985681650    -2.906243458304

