# STO-3G

title

0 1
C      0.297784859579     2.282456667082    -1.614201031917
C      1.263650490719     3.302294073533    -1.465783593039
C      1.211093116499     4.448038577058    -2.287803300500
C      0.200253766113     4.581933709408    -3.258495779670
C     -0.758906188869     3.561724191177    -3.407969015796
C     -0.710804179793     2.411570418661    -2.592099354735
H     -1.726644775376    -1.716546931079     3.847130376780
H      2.053539491051     3.219624409200    -0.720360370337
H      1.957582482529     5.229981616353    -2.163406163066
H      0.159506671262     5.467039611992    -3.888957951684
H     -1.543115781007     3.654066911591    -4.156877929433
H     -1.451769823219     1.626459677227    -2.730274710616
C     -1.425880625891     1.199021315644     0.660998463360
H     -2.053241597921     1.857845934443     0.069254071884
H     -1.810057457490     0.194562089613     0.820380576227
C     -0.333568542962     1.685545292895     1.383163631183
H      0.183533493499     1.058119451705     2.090458104020
C      0.006050021604     3.113425750925     1.506583226778
O      1.175660061293     3.421848210146     1.855450325087
O     -0.880263992585     4.078208975446     0.995044020968
C     -0.433450727577     5.439277895629     1.061295084566
H     -1.216222133955     6.103594097161     0.636472171282
H     -0.249883013385     5.744405632529     2.116477682531
H      0.497419450064     5.579606805744     0.467168490081
Pd     0.402994072808     0.615412553021    -0.519688116794
C     -0.360144137642    -1.659306944745     1.630618600209
O     -1.555056276127    -2.011476685281     1.457428361956
O      0.473314547088    -1.321494160510     0.644270562876
C      0.203768278352    -1.534669971740     3.066996540199
H      0.982265618990    -0.769798624745     3.096808310684
C      0.778071623423    -2.840284466754     3.570845241541
H      1.173031036821    -2.696172091460     4.597830482619
H     -0.024168512388    -3.606785736548     3.604124009112
H      1.598013541514    -3.183287226690     2.907014905570
N     -0.893666876237    -1.145890857724     3.952510602747
C     -0.957194987012     0.095631710998     4.502438568417
O     -0.095505681911     0.994900291149     4.335361172733
C     -2.138079823533     0.390249670236     5.341945907956
H     -2.686432504629     1.218775405318     4.864691052940
H     -2.781384114513    -0.502231712626     5.427038155114
H     -1.774257286866     0.691691477868     6.338958185050
N      1.402343848223    -0.362877507018    -2.127964617434
C      2.211501293793     0.304196736525    -3.013655306593
C      2.623346154295    -0.308821255635    -4.178823159588
C      2.236719921728    -1.596860083331    -4.469046360143
C      1.452647710051    -2.256727975781    -3.562590314608
C      1.059563930540    -1.606045324588    -2.373849653847
H      2.541958035886     1.312155018496    -2.802555580802
H      3.252271378946     0.231715897875    -4.867541338958
H      2.555926242952    -2.081607568681    -5.388009136262
H      1.131585975540    -3.267831271452    -3.718629250391
O      0.338281025719    -2.346931342913    -1.569199346686
H      0.268100855931    -1.963020095705    -0.574141765846

