# STO-3G

title

0 1
C      1.110692628607     2.837827320463    -0.818181909900
C      2.515599661655     2.961447480811    -0.752717106904
C      3.143946106088     4.159956686812    -1.149890930048
C      2.377594313424     5.243115519035    -1.623200329224
C      0.976940958817     5.120984777402    -1.696269591084
C      0.343827619293     3.923984905936    -1.298017175484
H     -0.333878298722    -3.760168238781     2.940471725988
H      3.125315479032     2.129348554454    -0.405349930226
H      4.227618648444     4.242383409753    -1.090445778903
H      2.864258254106     6.167541298455    -1.925485553687
H      0.375175702979     5.954542973117    -2.053088061525
H     -0.741407475571     3.856963785898    -1.352583548669
C      0.549812586206     1.495422233339     1.811172658656
H      1.321047691849     2.254661665241     1.891701384404
H      0.825716683927     0.483876763312     2.091032210888
C     -0.794066775648     1.810315237031     1.612565323656
H     -1.516544570534     1.015925233934     1.704351232749
C     -1.346303674727     3.175496666265     1.590592754335
O     -0.583254869769     4.166129015231     1.737742912466
O     -2.701240688570     3.343847149013     1.258391103726
C     -3.177114314375     4.697260180132     1.238256037056
H     -4.256375231314     4.704738486693     0.973200311853
H     -3.062631981462     5.171095312993     2.239850470027
H     -2.627162958164     5.300335651520     0.480404941567
Pd     0.180935282309     1.123887509289    -0.380270781733
C     -0.469787126346    -1.603060702985     0.678386335341
O      0.814869845960    -1.736372269952     0.816522389106
O     -1.025745802351    -0.668176178894    -0.006294469771
C     -1.318982501960    -2.670012722857     1.417868551317
H     -1.195339653663    -3.612847987446     0.869157455445
C     -2.796025268574    -2.343378496038     1.497309679917
H     -3.322081157050    -3.147542054535     2.051887457821
H     -2.944212394914    -1.384262910285     2.033612838802
H     -3.225513811269    -2.262736966437     0.477787337137
N     -0.794204176731    -2.876495729766     2.770614338092
C     -0.585413588173    -1.848278363102     3.632696552782
O     -0.896367084863    -0.654680541379     3.403498250666
C      0.053543971483    -2.206941339826     4.915155478146
H      1.045385723475    -2.633940009649     4.690335195033
H      0.152653742899    -1.293436251844     5.526488293663
H     -0.588072798185    -2.948080934299     5.422002505033
N      1.014649321593     0.379427965135    -2.147635598691
C      0.720342670294     0.958095466371    -3.353060577251
C      1.450520573289     0.627599597262    -4.475179986283
C      2.481390422282    -0.281579514031    -4.395728154669
C      2.753889551752    -0.851463573666    -3.180500370163
C      1.982310491043    -0.497759581152    -2.051208544347
H     -0.085086744172     1.679853585090    -3.423032914100
H      1.215127302777     1.093845648788    -5.417682462066
H      3.064187992762    -0.540945288286    -5.275574495172
H      3.542744356990    -1.565555049103    -3.052055787236
O      2.342332340755    -1.099827817202    -0.946437619799
H      1.647724285768    -1.261978451118    -0.106813432745

