# STO-3G

title

0 1
C      1.339590226798     2.957068304707    -1.222090237910
C      2.368448139505     3.775235316494    -0.702565270401
C      2.878403502357     4.848752284590    -1.464920334074
C      2.362751391839     5.118093948932    -2.746759298808
C      1.334528219378     4.305946069066    -3.265353580305
C      0.827072669621     3.229094486515    -2.509863434562
H      0.663434116383    -2.345359385954     3.530222245713
H      2.781461543451     3.586947121159     0.287245639978
H      3.671649090839     5.471213026228    -1.054921496096
H      2.752455312300     5.947845035770    -3.332121647461
H      0.925620685745     4.506241337319    -4.254184143164
H      0.035005228633     2.608756003677    -2.926683367981
C     -0.086955520737     2.581258156556     1.639754738272
H     -0.349092598607     1.834538839118     2.382982955036
H      0.769990592344     3.210436264024     1.866046837785
C     -0.913780390711     2.907887033070     0.569476025966
H     -0.672743088878     3.753113612807    -0.055394190680
C     -2.251315341080     2.341710580865     0.316980150066
O     -2.842725102921     2.665127990233    -0.745937670156
O     -2.842524470354     1.473441590981     1.248918036794
C     -4.123441161800     0.942149047075     0.880296740501
H     -4.504577151204     0.294513652906     1.697700369428
H     -4.861495390298     1.759801552816     0.716881491679
H     -4.041258196496     0.323533837759    -0.042586064677
Pd     0.713019947243     1.394905012119    -0.135680564569
C     -0.716643192690    -0.972377997751     1.170707869109
O     -1.523697399893    -1.055762000500     0.161226146874
O      0.359505303306    -0.272934205685     1.177773847688
C     -1.030995083366    -1.819925922390     2.426723180244
H     -0.973043809410    -2.870298658735     2.110821748460
C     -2.426373778030    -1.585876453330     2.969453936098
H     -2.573253865186    -2.189286091802     3.888712083068
H     -2.564416315764    -0.513951071685     3.217337336964
H     -3.182639087230    -1.884390006590     2.215028859639
N     -0.044649185377    -1.624887316167     3.490152215505
C      0.175252875988    -0.447497538898     4.138493818601
O     -0.488263738699     0.603576200804     3.976814222731
C      1.281172315513    -0.427598392147     5.124535700973
H      1.749841290991    -1.421974921095     5.213915129842
H      2.016173679665     0.316102320599     4.778284791538
H      0.855796490673    -0.124172863154     6.096432743076
N      1.493925796260     0.174468169137    -1.633026036000
C      2.800577795450     0.309411877822    -2.020332409356
C      3.252276183371    -0.316345140122    -3.162759434992
C      2.398858338869    -1.081632818190    -3.924594397015
C      1.099336373822    -1.211385941211    -3.513321983219
C      0.667353794442    -0.566222438366    -2.332271187638
H      3.478924697946     0.914994008388    -1.430676220704
H      4.280463335010    -0.196682560844    -3.462031898482
H      2.748267092533    -1.572611129676    -4.828976612288
H      0.386595579826    -1.795473872417    -4.060687844738
O     -0.590789435334    -0.766153682228    -2.047088229498
H     -1.021026548697    -0.763788436465    -1.022288367231

