# STO-3G

title

0 1
C      1.306041334910     2.973118856135    -0.910035757420
C      2.567366024914     3.140459899071    -1.521294299386
C      2.786259303784     4.204953677393    -2.420708489139
C      1.745947909198     5.104559020659    -2.724874846578
C      0.483370639353     4.933973457600    -2.125016946142
C      0.261837611917     3.874207727669    -1.220066260720
H     -2.435806779722    -1.152820462180     2.794570215902
H      3.374093362704     2.438856011440    -1.314954421226
H      3.763685842510     4.322720976391    -2.885054942653
H      1.916122539521     5.923288291361    -3.420449686955
H     -0.327971544885     5.621380745925    -2.357789112038
H     -0.724095812428     3.755549562865    -0.772694326335
C      1.981378446995     2.430597438895     2.016508361401
H      2.299705019855     1.597163458399     2.636795183137
H      2.759285209953     2.985599616665     1.503356195917
C      0.665102855407     2.903220763976     2.048882031421
H      0.414526342074     3.805024558271     1.510957408723
C     -0.362887224247     2.443386870104     2.999837723591
O     -1.531000428969     2.899295440865     2.879941188662
O      0.010299870846     1.669498287639     4.112680140522
C     -1.064037920496     1.222250608391     4.950087428387
H     -0.652278391199     0.606084473352     5.777777647258
H     -1.607308594374     2.086451290452     5.394709616928
H     -1.776330247388     0.592068296497     4.371790305705
Pd     0.943881582056     1.444886143165     0.331437840809
C      0.424554279211    -1.316810583211     1.497907888917
O      1.463904431055    -1.943401770615     1.078280049948
O      0.376146068683    -0.052364326949     1.740414520015
C     -0.894299115158    -2.104703303391     1.732605664851
H     -0.789956914339    -2.655652050553     2.676682601102
C     -1.177867129090    -3.108295692810     0.632547950038
H     -2.147019950473    -3.610961645911     0.829562775151
H     -1.233704402105    -2.590620946961    -0.347089833407
H     -0.374077882899    -3.872207706680     0.593800063178
N     -2.041576353495    -1.200937058759     1.866242993775
C     -2.398150857823    -0.270348343467     0.935944249281
O     -1.838752305439    -0.110777420225    -0.176505150676
C     -3.553271855314     0.595640987806     1.268981568761
H     -4.315499417997     0.444583921696     0.487267585094
H     -3.968654297819     0.338910240380     2.257060090594
H     -3.204722303809     1.642421725984     1.266547196385
N      1.028902394817     0.220728645676    -1.381470463636
C      0.147653329423     0.461336139444    -2.402516325056
C      0.393739461716    -0.056149844790    -3.659131162393
C      1.509884323552    -0.829042024989    -3.891460997291
C      2.355450409454    -1.083483747459    -2.843342962969
C      2.061663376794    -0.549951357243    -1.569579340644
H     -0.720384503016     1.087750587306    -2.234124274169
H     -0.296168223953     0.152764824547    -4.459464824785
H      1.707802272802    -1.237577873475    -4.878680362883
H      3.225357091339    -1.699481703802    -2.948484658778
O      2.898319428353    -0.897997095379    -0.605138265310
H      2.392692706548    -1.248922803162     0.272075243229

