# STO-3G

title

0 1
C      1.924083129804     2.643689670863    -0.387684198310
C      3.045846725486     1.859309975851    -0.733806277484
C      4.312683423890     2.460607684755    -0.881414897521
C      4.468751420451     3.847853949321    -0.692388965703
C      3.350240087878     4.631670421773    -0.351875970562
C      2.080776446593     4.033921192918    -0.197079684891
H     -2.250307364345    -2.195458688925     1.393745784356
H      2.943169548728     0.786340204859    -0.887994710735
H      5.169706234786     1.843713391723    -1.145156107376
H      5.446299985258     4.309637806287    -0.809560244881
H      3.460103994301     5.703900942263    -0.201974489201
H      1.231334654514     4.658897800266     0.072784292986
C     -0.306680890853     2.488939394009     1.912938926065
H      0.112931474114     3.474376530938     2.086752062480
H     -1.386775612484     2.421108854555     1.846514911953
C      0.474029548784     1.338288863823     2.020078894471
H      0.020910874339     0.356636898308     1.965937232835
C      1.889349915109     1.339701646166     2.434529887016
O      2.523528542916     0.253617588543     2.434045024576
O      2.509035948843     2.553593599146     2.780732580319
C      3.922216664791     2.489187121179     3.016222013780
H      4.300216953145     3.503290554915     3.266961239724
H      4.152680579239     1.808645186583     3.867059359229
H      4.457584655804     2.138359975327     2.104789243173
Pd     0.099182157476     1.841437614472    -0.223293599921
C     -2.109074671980    -0.048148125234     0.398995315898
O     -1.149012539128    -0.926090414198     0.323897603388
O     -1.992592969091     1.156092793062    -0.040745373266
C     -3.394863524603    -0.486530732971     1.118018638303
H     -4.247029675189    -0.396470499593     0.430983939104
C     -3.680147296762     0.362402874976     2.342642858247
H     -4.638771388261     0.041247145587     2.800977868474
H     -2.870514725180     0.218100982140     3.087017915707
H     -3.762326256629     1.432633952792     2.064553015974
N     -3.205448345836    -1.869675001970     1.537659702407
C     -4.260158397182    -2.682136086132     1.789118357087
O     -5.458187643940    -2.306011688656     1.778611166830
C     -3.952562451731    -4.093455565840     2.107367163498
H     -4.364615103561    -4.303314583006     3.107922848713
H     -4.449979719914    -4.716914378635     1.346993809867
H     -2.862056900380    -4.267455360696     2.096628097012
N      0.275773046251     1.291512677209    -2.220743123764
C      0.443458281209     2.254766643749    -3.179691888447
C      0.721664783980     1.894206394643    -4.480924145857
C      0.834856598851     0.566924116776    -4.829116805941
C      0.659683011245    -0.377833998609    -3.853418434467
C      0.368340035215     0.024107234125    -2.531480886633
H      0.362029439432     3.302098371698    -2.912942332095
H      0.856559496727     2.659705624088    -5.227336193957
H      1.057591912682     0.276147254008    -5.852347792863
H      0.734174915745    -1.427435120111    -4.059070924861
O      0.232097730703    -0.972121544494    -1.692317585851
H     -0.279242845058    -0.875311187335    -0.753038545085

