# STO-3G

title

0 1
C      1.461278584483     2.599496618499    -0.420761718363
C      2.771174622444     2.239014968158    -0.034296991447
C      3.783235383100     3.217420024549     0.043007634981
C      3.500328559139     4.560689083540    -0.273625161056
C      2.197785696623     4.920450517683    -0.667220542371
C      1.179094432089     3.945616668895    -0.740451805970
H     -3.536850318500     0.052090771774     0.927641258246
H      3.009869247532     1.204079581001     0.205676091721
H      4.787040404824     2.925588361959     0.345837683133
H      4.283048647052     5.313394284460    -0.215568402574
H      1.968072658478     5.955527946990    -0.912519559343
H      0.178418850483     4.249879117343    -1.041010885218
C     -1.412187173685     2.243694767974     0.802881885543
H     -1.299197663453     3.318229349989     0.712612844203
H     -2.315775938318     1.810540690505     0.389705843212
C     -0.592854798416     1.492762923556     1.639684116126
H     -0.825739706438     0.457173271238     1.838179444226
C      0.439906888019     2.061224228027     2.521594469108
O      1.196175770489     1.272852180369     3.147657968363
O      0.651579714191     3.451376634422     2.539172746239
C      1.783357345063     3.904391857885     3.293666014344
H      1.849851785217     5.011191445877     3.225682723141
H      1.682324932002     3.623816269071     4.366488315635
H      2.726312280896     3.477144579076     2.883527398412
Pd     0.044018135518     1.195230695697    -0.565601755384
C     -1.513884953151    -1.372557162006    -0.033181634052
O     -0.409978270946    -1.986198053514     0.221245521244
O     -1.604237076840    -0.257933852982    -0.685397846867
C     -2.807989682622    -1.898524070129     0.637238575374
H     -2.549031723537    -2.773517113190     1.237970548758
C     -3.878539256900    -2.285070797030    -0.358141552461
H     -4.775907700287    -2.642497785025     0.187882603036
H     -4.163516378675    -1.398828846581    -0.962625184079
H     -3.509931030548    -3.089469735876    -1.027213408928
N     -3.317747836049    -0.790513967378     1.455543645754
C     -3.167545379889    -0.551214528894     2.791715514772
O     -3.341373946217     0.583423451843     3.296085944876
C     -2.795250051252    -1.690239412528     3.658121631400
H     -3.550945259495    -2.482476026941     3.526770993704
H     -1.784957349658    -2.028805804696     3.375517931529
H     -2.790287125249    -1.343757414204     4.707945439432
N      1.133035341914     0.423583104562    -2.161602939840
C      1.356876982070     1.227904392488    -3.247453795344
C      2.232514149553     0.830506294039    -4.235195566365
C      2.892763288612    -0.373352371923    -4.140691337680
C      2.648854104783    -1.164253559161    -3.049940497203
C      1.738645591018    -0.733815772324    -2.058524726002
H      0.846839250435     2.180808274198    -3.327808561906
H      2.405800500847     1.474550939151    -5.081650135944
H      3.589397725648    -0.688811692456    -4.912905552044
H      3.131003590002    -2.112398539209    -2.917930885906
O      1.597345523745    -1.572736362487    -1.069064345903
H      0.703298204913    -1.648308680345    -0.438678082797

