# STO-3G

title

0 1
C      1.032204107558     2.843842978968    -0.321903700035
C      2.415249079974     3.085759994593    -0.180441511851
C      2.928962531157     4.389870825096    -0.339823331739
C      2.069702152269     5.461395267742    -0.651889022072
C      0.690696779344     5.221819949089    -0.804742210272
C      0.171859115446     3.919601442002    -0.641976656486
H     -2.780103244421    -2.622930861150     1.197776164567
H      3.097737737910     2.266416480492     0.038254924728
H      3.997645761391     4.561816815746    -0.226168712152
H      2.469730649231     6.465073665948    -0.776014365064
H      0.017799322308     6.042381228783    -1.046846013850
H     -0.900603553413     3.761216381088    -0.752593625218
C      0.672058336386     0.868543297311     2.048024013544
H      1.505440234326     1.523644653570     2.280641694366
H      0.854599298878    -0.197088714009     2.140902030892
C     -0.629398973128     1.346067525860     1.909599442468
H     -1.434635395218     0.633096911744     1.813051121796
C     -1.039990354586     2.733698771272     2.177908450798
O     -2.217754395018     3.077738326669     1.896215972978
O     -0.095183254509     3.663360024225     2.645245634281
C     -0.560820048430     5.010306818070     2.803349626878
H      0.274556354541     5.645696429624     3.168589738004
H     -0.908937059563     5.425375432044     1.830845507488
H     -1.388309947003     5.058739200556     3.546795188520
Pd     0.281420909277     0.995791442056    -0.175052755068
C      0.021228628859    -1.972205885359     0.367536433326
O      1.298924138849    -2.079045807388     0.218130104738
O     -0.677436278756    -0.948784056981     0.007640893419
C     -0.704893274949    -3.128697872859     1.092270469276
H     -0.012577970367    -3.495778980558     1.856419039870
C     -1.059353481977    -4.266421575262     0.159570524854
H     -1.547340434776    -5.078072555134     0.737985700505
H     -1.765092885479    -3.905252137116    -0.616126444105
H     -0.143878661437    -4.664348474332    -0.325175752699
N     -1.924410843975    -2.656104629763     1.736864240033
C     -1.828003920979    -1.914052867239     2.872524921009
O     -0.745760319591    -1.617485646168     3.432116880483
C     -3.106485671416    -1.441083633436     3.442035963603
H     -2.893317516778    -0.861051015047     4.357075628717
H     -3.603277252385    -0.809533985244     2.687021628009
H     -3.722404158465    -2.326200431218     3.677507352901
N      0.926155118226     0.714546246682    -2.141710052540
C      0.425716706692     1.497600767903    -3.147318802985
C      1.019055363202     1.489097016323    -4.391865543998
C      2.118209145079     0.697478757511    -4.637006358960
C      2.596023572819    -0.084958783771    -3.619789096700
C      1.960511979123    -0.061730418129    -2.357965771118
H     -0.436831177189     2.127074214852    -2.963204149575
H      0.620632126096     2.114200516548    -5.173951734280
H      2.593300258783     0.691476375590    -5.614417507758
H      3.445914779924    -0.725266410116    -3.747444345280
O      2.505193379302    -0.847118102235    -1.468905405978
H      1.940400970800    -1.308269801779    -0.631640773562

