# STO-3G

title

0 1
C      0.207101459658     3.411727644681    -1.185894176410
C      1.460704440609     4.061348209703    -1.180822333758
C      1.583211032799     5.372041439577    -1.685877885959
C      0.458980037604     6.041988980434    -2.208122556876
C     -0.790445976880     5.394208398445    -2.221558844240
C     -0.919319488871     4.083789588088    -1.711321470857
H     -2.137309453926    -1.395034217299     1.183481286393
H      2.341699518016     3.553310744769    -0.791624322937
H      2.554680926160     5.862612905136    -1.672559431699
H      0.557216641838     7.052487029895    -2.597912959784
H     -1.663905525555     5.903348584073    -2.624446186873
H     -1.895307373694     3.601594965784    -1.737274636225
C     -1.446487670226     2.055346887010     1.123702291393
H     -1.843210426201     1.099427933398     1.449946879691
H     -2.124675088423     2.714819192304     0.593047270842
C     -0.214259283957     2.522565913674     1.574466267698
H      0.099448266331     3.525941896672     1.333900073407
C      0.620169084700     1.857844709226     2.591245716565
O      1.735222829944     2.364936627524     2.877072451830
O      0.122019793960     0.739267653483     3.277106515764
C      0.988652220162     0.173227615275     4.270731030273
H      0.481609703430    -0.690957609452     4.754239263482
H      1.933630026146    -0.192997196286     3.808669237934
H      1.225359633381     0.918182663032     5.063397459856
Pd     0.009682772602     1.532617871950    -0.516268499727
C      0.355335018174    -1.172603438469     0.875687816891
O      1.626012009167    -0.983423346103     0.957698774141
O     -0.436140159392    -0.479262829719     0.119095174778
C     -0.308553960123    -2.240711303411     1.759507323869
H      0.212518599804    -2.291912311042     2.719141113230
C     -0.291584364827    -3.611009099806     1.117929486949
H     -0.751223447106    -4.345272431704     1.811612649293
H     -0.886093016873    -3.586341723652     0.181856288871
H      0.750904034220    -3.920026521294     0.896953165233
N     -1.698414201439    -1.847251491088     1.980449530157
C     -2.223085934903    -1.781806023847     3.233519974436
O     -1.639209970094    -2.151483247086     4.279077107395
C     -3.596463070007    -1.241023563957     3.310932552496
H     -3.922792492007    -1.262591918016     4.365435137141
H     -3.572134549763    -0.206792136520     2.934033801981
H     -4.249552584973    -1.876163035644     2.688213676513
N      1.118150656170     0.944519239264    -2.175900120798
C      0.685458487103     1.278730648609    -3.431668620022
C      1.513384330666     1.102353357638    -4.519631126826
C      2.780743993192     0.590498594830    -4.357954630348
C      3.189564694396     0.253838679679    -3.095443795791
C      2.315369309344     0.436646805033    -2.000303389295
H     -0.308591046759     1.687772641191    -3.569358554430
H      1.164887419986     1.375703081398    -5.501991873622
H      3.439818457943     0.454734453405    -5.211371758353
H      4.163066717699    -0.151824119050    -2.903616183309
O      2.818356631039     0.080422862353    -0.851800544132
H      2.229922259446    -0.298129496710     0.008505440479

