# STO-3G

title

0 1
C      1.215581428694     2.983585094919    -0.753614509567
C      2.393152923302     3.349498194666    -1.440075794411
C      2.478582110850     4.605517736982    -2.077930212931
C      1.388617371361     5.496001287258    -2.043541462534
C      0.211466764186     5.128479466702    -1.363449480580
C      0.122469933319     3.878065378712    -0.716224471271
H     -0.903008024755    -0.402924637677     0.399371119029
H      3.239286813924     2.666250087208    -1.492315268963
H      3.392559105424     4.880119346196    -2.600859400713
H      1.456335668921     6.462853626100    -2.536543851864
H     -0.634600256389     5.812000451295    -1.327325502588
H     -0.794457060789     3.619581147283    -0.188579705617
C      2.152819167911     1.609181994029     1.993517048116
H      2.309956650609     0.640360430959     2.460220126693
H      3.031664515727     2.094448304885     1.578478587904
C      0.946507564271     2.297255215874     2.086401302399
H      0.885921952644     3.301327831616     1.700333060406
C     -0.193685960013     1.909264340050     2.933892370679
O     -1.250147662755     2.588795268594     2.852177601530
O     -0.038678878191     0.898484573296     3.895572682288
C     -1.105903410543     0.765691027730     4.846049406404
H     -0.880160702343    -0.074242304204     5.537831685162
H     -1.216400259413     1.694443763727     5.449280637224
H     -2.071555728387     0.542013946146     4.340272413982
Pd     1.095630756215     1.154866282995     0.055860957845
C      0.776084273643    -1.497416393235     1.919427115239
O      1.589348617118    -1.863510601089     2.786738765953
O      1.133380466301    -0.907542743143     0.757008553847
C     -0.755398444679    -1.689951850884     2.055807293660
H     -1.047754852164    -1.551853346753     3.100247277724
C     -1.178695847365    -3.079859420628     1.624765662697
H     -2.269898255640    -3.201481856872     1.787709000466
H     -0.961467340510    -3.214725449811     0.545543739845
H     -0.637230216570    -3.847206990470     2.216211996500
N     -1.439526498327    -0.712981056799     1.204516003967
C     -2.677417587640    -0.235309217698     1.485183677228
O     -3.377980561788    -0.583811872279     2.464629483799
C     -3.194428175551     0.766689636487     0.528841138858
H     -3.220568058568     0.300970568996    -0.470293869926
H     -4.210376259691     1.057599040636     0.849092112518
H     -2.524364724790     1.641858838038     0.550060546072
N      0.956394320114     0.337384458231    -1.892566497908
C      0.302483190922     0.986513097758    -2.908266983029
C      0.475478938461     0.582134750373    -4.215485054076
C      1.297024047633    -0.479789579036    -4.518632472698
C      1.923635774681    -1.129831000895    -3.489742748414
C      1.716492053805    -0.699749232077    -2.161890792582
H     -0.355039697276     1.818688714772    -2.688453729701
H     -0.038905135979     1.106387368414    -5.004416126387
H      1.436605077075    -0.800460829695    -5.547705681076
H      2.561413579416    -1.975361765987    -3.656401967462
O      2.342066609309    -1.415042031654    -1.259028130908
H      1.975520780640    -1.281297592498    -0.264499604301

