# STO-3G

title

0 1
C      1.237458876077     2.671366088359    -1.501927207477
C      2.452503476888     3.244433720520    -1.940170193248
C      2.501562446655     3.971809607060    -3.149345790989
C      1.340712795064     4.134866996293    -3.928452010114
C      0.128817738415     3.561124064144    -3.496543865784
C      0.076926561185     2.829571670125    -2.291931604457
H     -0.877414540378     0.430246915173     1.830119665120
H      3.366063331333     3.129929796448    -1.359051989818
H      3.443110529658     4.408079935312    -3.477102318460
H      1.378618507959     4.697061921111    -4.858524476705
H     -0.773358075940     3.674779120047    -4.094566388025
H     -0.865585043088     2.378070033845    -1.985315309388
C      1.805017065409     3.295944768006     1.470066239062
H      2.202722069177     2.797680790221     2.348831316031
H      2.506982958799     3.790495695873     0.808298484670
C      0.432925947240     3.481174226506     1.302810345318
H      0.063594954394     4.063671259177     0.471018655447
C     -0.571907073112     3.181376400303     2.338945522703
O     -1.786160972333     3.365316895539     2.063608697384
O     -0.162065288920     2.812449250494     3.631565865461
C     -1.205615265173     2.428286311322     4.537123096968
H     -0.758578812717     2.162232376255     5.519189507054
H     -1.922934130611     3.264903047256     4.697201138423
H     -1.749476284377     1.534896805079     4.155830416346
Pd     1.149911800946     1.598303664027     0.193531158407
C      1.121051749394    -0.750425887672     2.165460749611
O      2.194896101422    -1.387477458356     2.142647403326
O      0.996218017287     0.576083055140     2.045319107518
C     -0.274198183158    -1.448768255026     2.348890634282
H     -0.467917400542    -1.580301475261     3.422923926437
C     -0.351177641809    -2.803530177273     1.674890795596
H     -1.353839856394    -3.252749541377     1.823810139001
H     -0.156156776705    -2.711976563599     0.590432023558
H      0.406178774716    -3.484082087595     2.116204481337
N     -1.278099844960    -0.520469341088     1.757427681096
C     -2.635526389155    -0.675247801388     2.020424971933
O     -3.143794845059    -1.635064587722     2.622113391032
C     -3.505379704212     0.388326160540     1.476174334273
H     -4.556205259152     0.132141934521     1.699869317973
H     -3.239363849711     1.338484421940     1.963198282612
H     -3.354290953618     0.447621091528     0.384665410495
N      1.254184910715    -0.103937312776    -1.032788759524
C      2.475452354085    -0.344786377988    -1.605519681014
C      2.586383210439    -1.246352843018    -2.643669587647
C      1.476794954777    -1.918966964417    -3.105256712178
C      0.273450407158    -1.679072185926    -2.495876952212
C      0.206494532767    -0.757972886544    -1.429542783967
H      3.350693971611     0.188951909219    -1.254070984616
H      3.549309037241    -1.421963095213    -3.094545130777
H      1.555821473283    -2.629182363551    -3.924097434576
H     -0.624944700538    -2.181704900238    -2.794339053197
O     -1.000020104173    -0.644624683180    -0.892008058640
H     -1.079990645103    -0.481890059278     0.123859576818

