# STO-3G

title

0 1
C      0.897588408979     2.564734906517    -1.245465362455
C      1.813882651256     3.623203228860    -1.058345079253
C      1.840212518393     4.710333702278    -1.958759826332
C      0.951052934466     4.752923525828    -3.048958134744
C      0.035594199212     3.698716066363    -3.238352069801
C      0.011668241524     2.607827922219    -2.346161981129
H      1.196965648148    -1.695097480816     4.388043076661
H      2.503633959448     3.619558434197    -0.216408560184
H      2.546374470002     5.523092417868    -1.799205600450
H      0.968146113865     5.594755588647    -3.737330701093
H     -0.655675457249     3.719873521327    -4.078625167170
H     -0.694613934962     1.796622553020    -2.514055650903
C      0.599340987055     2.171356353413     1.878667575329
H      1.118829718364     3.120288284986     1.791159150370
H      1.020538421353     1.430796838943     2.549434873829
C     -0.685449403141     1.987225734289     1.370395622299
H     -1.228958807355     1.089043276498     1.623785058063
C     -1.488727872605     3.048221058878     0.736388929698
O     -1.057797947277     4.232535959979     0.717422002785
O     -2.681648985624     2.692433974421     0.085902017333
C     -3.354004451911     3.751722281866    -0.609039401447
H     -4.275363622954     3.352555220246    -1.084968998920
H     -3.648961900752     4.562156465585     0.095518961930
H     -2.703000190396     4.174817852993    -1.408204866349
Pd     0.887279810997     0.989726348056    -0.012586388899
C     -0.034968774428    -1.483875382944     1.516678129371
O     -0.911905234197    -1.689491250420     0.595299587755
O      0.949138099127    -0.653637046877     1.412972581304
C     -0.101736723620    -2.295258151629     2.836607656075
H      0.637830310872    -3.102106616918     2.740580894351
C     -1.455574704159    -2.921072900664     3.106558633970
H     -1.433827423795    -3.447890627523     4.082681196683
H     -2.238551781092    -2.136062851629     3.137569346149
H     -1.706571185545    -3.648302629172     2.307151858375
N      0.295139861795    -1.478155358926     3.987251509879
C     -0.335333675220    -0.318293296820     4.314876566043
O     -1.304202513529     0.163902158826     3.680282606195
C      0.162659291991     0.405729106443     5.506296418118
H      1.000572220810    -0.138426503441     5.973893730444
H      0.482953593192     1.407337829910     5.177775368212
H     -0.676231800380     0.489882645591     6.218352006324
N      1.541526839452    -0.127328891999    -1.645925876197
C      2.733641505573     0.199319448219    -2.235364030188
C      3.084554296367    -0.361764016335    -3.444895502520
C      2.242408519941    -1.250892352513    -4.073545099501
C      1.058070876857    -1.567226028560    -3.463274582616
C      0.730907027841    -0.982687730073    -2.219159147840
H      3.399455488636     0.904532121251    -1.751614215806
H      4.021959510628    -0.092248772890    -3.902957020790
H      2.510939441795    -1.691130811505    -5.030179092018
H      0.358905774776    -2.251837790437    -3.900531712353
O     -0.425879960085    -1.352863036668    -1.740987258299
H     -0.657465328408    -1.374588374967    -0.658300513581

