# STO-3G

title

0 1
C      0.902826491347     2.563715305414    -1.242135280544
C      1.824858366908     3.617296026636    -1.055492480213
C      1.866554516625     4.696991888894    -1.964247768591
C      0.987158551075     4.736978891963    -3.062411328446
C      0.066097451698     3.687588137635    -3.251436803899
C      0.026927184310     2.604009856786    -2.350922835692
H      1.154637526499    -1.741765556475     4.405430705047
H      2.507464329118     3.615484666008    -0.207791213165
H      2.576954245615     5.506135241594    -1.805093880371
H      1.015980061798     5.573224098610    -3.757146157893
H     -0.617661361658     3.706790163725    -4.097837381020
H     -0.683231413884     1.796162368681    -2.518782627062
C      0.564348859268     2.200481415818     1.875167809202
H      1.080234570316     3.150311767319     1.777310772712
H      0.979857780137     1.474555063610     2.564871396261
C     -0.715376537875     2.002673960099     1.359637974364
H     -1.255777688708     1.105819956260     1.623560475675
C     -1.518877456798     3.049423944641     0.702766412860
O     -1.093279455592     4.235211695248     0.666850347348
O     -2.705763456531     2.677340481508     0.050314424435
C     -3.379303254651     3.722276403801    -0.664952584534
H     -4.295583045594     3.311073000338    -1.140464769165
H     -3.682979118948     4.541798209620     0.025225603890
H     -2.725638615121     4.136685117494    -1.466479118262
Pd     0.872801144525     0.997047467529     0.000901421260
C     -0.077435754896    -1.465234524603     1.525360206163
O     -0.949701721542    -1.660315982747     0.596791654723
O      0.912828938983    -0.641685632631     1.432448733007
C     -0.164097193371    -2.283943296736     2.840177302389
H      0.543052120663    -3.117983394445     2.733775305127
C     -1.539406536720    -2.858095626711     3.115902694189
H     -1.530627546513    -3.393720307767     4.087441234081
H     -2.289873428252    -2.042522895767     3.160752776568
H     -1.825685068112    -3.568030653133     2.312780829734
N      0.268868361709    -1.487232569482     3.989996189499
C     -0.302453145149    -0.300961524979     4.324577876098
O     -1.267001191489     0.225320675856     3.720305327478
C      0.291616959613     0.386196746450     5.490724198962
H      1.351703748997     0.588360774917     5.266025850802
H     -0.259108112186     1.327787972122     5.661427783068
H      0.196472524741    -0.281816646485     6.364248668047
N      1.542050556363    -0.132178070915    -1.618664019381
C      2.744903103084     0.182447459284    -2.192547027671
C      3.107756903602    -0.385756673766    -3.395239920706
C      2.266811781308    -1.269879901449    -4.032570214376
C      1.071473762064    -1.574055950958    -3.437724150896
C      0.732329194219    -0.982438370611    -2.200246172823
H      3.409836108282     0.883731684618    -1.701924022871
H      4.053671276718    -0.125776381421    -3.841141855536
H      2.544762156951    -1.715659861169    -4.983921659203
H      0.372569455233    -2.254185616554    -3.882337517976
O     -0.434302608800    -1.341140240097    -1.736678983815
H     -0.678925255422    -1.353553839837    -0.658240682104

