# STO-3G

title

0 1
C      1.600374458895     2.881303519583    -1.165214627023
C      3.001890615712     2.716336853205    -1.225913398676
C      3.807464820353     3.692023408911    -1.848096403970
C      3.222396754558     4.838122767379    -2.422316444017
C      1.825725487071     5.004328703231    -2.367863668424
C      1.016070276846     4.032518842546    -1.740467899283
H     -3.733588459028    -1.068393998864     0.874160261286
H      3.469549211483     1.833227730028    -0.793252166524
H      4.886624171904     3.553371696796    -1.882364855157
H      3.846225238103     5.589083408715    -2.901746386489
H      1.364509528312     5.886832467791    -2.807422306501
H     -0.061994113584     4.182661190415    -1.711369081998
C     -0.475523246110     2.839723710772     1.252261277967
H     -1.298418770602     2.290706532990     1.699829248202
H     -0.737092309869     3.704329492401     0.649056117694
C      0.849292232271     2.636130887500     1.626946398097
H      1.616104275605     3.307803104583     1.275088585819
C      1.303249272449     1.708455176034     2.679742779992
O      2.540589815703     1.587007445200     2.874700602787
O      0.367402848141     0.984784133375     3.436474239791
C      0.911041884583     0.087104221254     4.414524334226
H      0.080307549842    -0.417019481529     4.953108437318
H      1.535010771406    -0.696586535073     3.926864774553
H      1.524160245932     0.639076903607     5.162328906196
Pd     0.406477351329     1.489568622917    -0.357878849740
C     -0.869485478906    -0.755681421619     1.244444778406
O      0.293603991626    -1.277161692641     1.466580978526
O     -1.102544466567     0.113612844310     0.323714320727
C     -2.053532812423    -1.130689385259     2.169125892847
H     -1.848740626461    -0.666895171844     3.141351085469
C     -2.212950534188    -2.622749568044     2.362363623039
H     -3.062838037718    -2.816537544972     3.048934407080
H     -2.424615465094    -3.102726570282     1.385665015257
H     -1.288159586272    -3.055351068671     2.796913299316
N     -3.306112351860    -0.590392750704     1.657499664165
C     -3.655825225325     0.699470716078     1.905257024144
O     -3.010505636897     1.490722313343     2.633415501620
C     -4.898972745083     1.158532575919     1.251725620314
H     -5.086824796561     2.206241076065     1.543969455835
H     -4.756558796989     1.074934016062     0.161887607974
H     -5.722516926025     0.506845957170     1.591306149347
N      1.018040431984     0.217932484151    -1.888354303378
C      0.896924997994     0.611935716924    -3.194473275876
C      1.495461471816    -0.120362569997    -4.197371872794
C      2.218572130459    -1.252747580508    -3.899497794230
C      2.318576862196    -1.634012799380    -2.588373329765
C      1.686761469749    -0.868392040993    -1.582014842912
H      0.333515202913     1.504714390458    -3.439479892311
H      1.399433199104     0.203451782919    -5.220603939015
H      2.696499408153    -1.831262913175    -4.685606800880
H      2.864547281057    -2.507430683467    -2.291897381355
O      1.857581034347    -1.336774519328    -0.376526309298
H      1.171328534617    -1.186239474377     0.482564021279

