# STO-3G

title

0 1
C      1.173191995446     3.027333777065    -0.704581105473
C      2.411964552998     3.452794251496    -1.227539831550
C      2.500806151556     4.690097189208    -1.901337682187
C      1.357972164615     5.497995038002    -2.053826987527
C      0.122217848950     5.062028413078    -1.536727286589
C      0.021225802360     3.826641004487    -0.862497435056
H     -0.703411592550    -0.457095841602    -0.216875285721
H      3.301358485884     2.831906726162    -1.130797702005
H      3.458443888128     5.013740092233    -2.304762092690
H      1.428835866379     6.451784066627    -2.571820821518
H     -0.767602494643     5.676534607865    -1.659358834777
H     -0.942574578328     3.479900276684    -0.498987331638
C      2.166179941011     1.959030652330     1.949946665798
H      2.558178110861     1.042265524339     2.383160394710
H      2.881032084994     2.629229125635     1.485129068195
C      0.847449587343     2.372136594934     2.176250843073
H      0.527839826610     3.342571124383     1.828800358042
C     -0.067375452524     1.735395666413     3.140355233657
O     -1.217087243254     2.220813303955     3.299915966370
O      0.353731372088     0.607895327646     3.862114012898
C     -0.494323219732     0.191470018447     4.941600072571
H     -0.068029314099    -0.724886398986     5.406736890913
H     -0.553800279284     0.983005241468     5.722245181941
H     -1.519896134141    -0.047307229138     4.582673487076
Pd     1.031753114844     1.249863726267     0.202692500484
C      0.385369791690    -1.620598591337     1.785674709634
O      0.817135315012    -2.452469564449     2.606515030727
O      1.153068564778    -0.785124560018     1.070811225810
C     -1.163285574926    -1.512019127956     1.521743603883
H     -1.615925978779    -1.248389272098     2.483541200464
C     -1.741969406805    -2.831714350089     1.061591609952
H     -2.837876535403    -2.732455717465     0.923750749710
H     -1.286387723059    -3.110986334621     0.088929823395
H     -1.537286136699    -3.626463227933     1.809112701823
N     -1.437764335237    -0.511354829233     0.488979030252
C     -2.283267406853     0.546772416504     0.432897689649
O     -2.105945797054     1.491590947422    -0.384817293159
C     -3.470744986333     0.576167850824     1.313118365748
H     -3.614683327461    -0.387668417098     1.821823129538
H     -3.331616260740     1.397249273705     2.036432660083
H     -4.348200107476     0.784259979962     0.676216513504
N      0.998254027967     0.284247999246    -1.691875084203
C      0.320090452960     0.820542631022    -2.754982753269
C      0.597373191408     0.387043482580    -4.036593001234
C      1.539890974115    -0.592869999861    -4.258047265402
C      2.186430061354    -1.132299693466    -3.176735558356
C      1.872235328248    -0.672092884705    -1.880923490907
H     -0.428406524143     1.586699257401    -2.592920847789
H      0.062926376924     0.820976217344    -4.865346343784
H      1.757238918391    -0.937426845155    -5.265437178913
H      2.914185521948    -1.912054745411    -3.278090844724
O      2.520484939146    -1.279545299785    -0.910041782919
H      2.098930401473    -1.131971099086     0.045672247664

