# STO-3G

title

0 1
C      0.933763852962     2.824752552746    -0.902087392586
C      1.692577103324     3.704991479172    -0.097336852016
C      2.067800221031     4.972041502803    -0.592326808894
C      1.690788228888     5.367491284283    -1.889914229617
C      0.940954453507     4.487413911347    -2.694097996795
C      0.567448664695     3.217329349102    -2.206368806286
H     -0.577808685459    -1.425246560259     2.585657703715
H      1.987019261827     3.424501692034     0.913701644103
H      2.649379441571     5.643802428078     0.035941049429
H      1.978892030342     6.344343748134    -2.271042152176
H      0.650933289318     4.780640328601    -3.701169766052
H      0.007888313185     2.541775203276    -2.850953980688
C     -1.722493078998     1.481934776647    -0.023611135513
H     -1.961440101229     2.261320661545    -0.739924270873
H     -2.087611692684     0.489982462020    -0.273310407065
C     -1.196281924544     1.772993377303     1.234688968470
H     -1.094140122231     0.983721173733     1.966022766954
C     -0.995667765749     3.138721414365     1.747620973575
O     -0.363068612978     3.292252315828     2.824437970861
O     -1.413974152586     4.238295385571     0.978511593121
C     -1.096790963566     5.533450856276     1.506428696258
H     -1.470487964600     6.314789730441     0.810092166390
H     -1.580913915806     5.687287161619     2.497372305315
H      0.004606706623     5.660986951303     1.607009299602
Pd     0.476086079481     1.017225870184    -0.183404601542
C     -0.852566882947    -1.696213564674     0.253700757942
O     -1.079724919938    -1.774829115686    -1.010127487318
O     -0.009400840736    -0.860654767393     0.781827189916
C     -1.661146412877    -2.567301498674     1.230997248649
H     -1.461685087045    -3.627935624094     1.028033937391
C     -3.153330372861    -2.327638816178     1.094199518002
H     -3.706251803250    -3.031581450516     1.750245019985
H     -3.393058991352    -1.292213653179     1.409656511734
H     -3.479643165039    -2.491127081031     0.046272252504
N     -1.242902279568    -2.196658060026     2.581744352800
C     -1.479430774525    -2.998119865967     3.650560537327
O     -2.141805869484    -4.062193534247     3.604427875440
C     -0.920756343769    -2.555405357203     4.947507822664
H     -0.233553600194    -3.343566117486     5.296598736465
H     -0.384449489773    -1.598797254589     4.830621766457
H     -1.761603228639    -2.439487670660     5.652232838027
N      2.038560942124     0.269108052669    -1.339477871315
C      3.311902326468     0.740868661663    -1.160795054652
C      4.304202323446     0.413101988964    -2.059874493585
C      4.028495663222    -0.389509245793    -3.143387713767
C      2.750681789991    -0.856934703786    -3.297578450314
C      1.757372178582    -0.512219542087    -2.353835514512
H      3.539096633362     1.375292534964    -0.312248200843
H      5.301327508085     0.794139577197    -1.912004319765
H      4.806112359496    -0.648001484106    -3.857278985821
H      2.473931123427    -1.489373715985    -4.117531940603
O      0.581793730597    -1.018475905503    -2.613466796120
H     -0.180803480615    -1.244192083604    -1.865279209493

