# STO-3G

title

0 1
C      0.611971197823     2.501557887895    -0.805736649297
C      1.619820481142     3.298579198330    -0.221634582036
C      2.220986924853     4.335558199708    -0.967081441046
C      1.821127164281     4.582932162998    -2.294091679940
C      0.818751967080     3.783773709899    -2.878228898307
C      0.218033603983     2.743213282059    -2.140210720260
H     -0.212059474917    -0.941696621207     4.263675566299
H      1.947393454734     3.119722736131     0.800185183933
H      2.995100364570     4.947748241654    -0.508308202041
H      2.282794935593     5.385784193905    -2.864243629027
H      0.506373910427     3.963102373328    -3.905125498757
H     -0.546408448876     2.125511619619    -2.608420979029
C     -0.937013694809     2.284885469079     1.914551032957
H     -0.274804975774     3.132970183287     2.055939080229
H     -0.916238455002     1.496733858219     2.658872123902
C     -1.954117406548     2.298811179395     0.955378972737
H     -2.669413290539     1.488439993091     0.935688366998
C     -2.284183208953     3.460219963628     0.109399756929
O     -1.702287639926     4.560832095457     0.300039827773
O     -3.230973126184     3.298362605255    -0.914970969766
C     -3.430259374533     4.436442893438    -1.765384190913
H     -4.189629626188     4.190610256706    -2.538711793317
H     -3.799809475407     5.308886495499    -1.179882731075
H     -2.482992312918     4.713687859025    -2.282666254397
Pd    -0.233374137025     1.010962548151     0.218691537285
C     -0.917592093274    -1.711432383398     1.440752626006
O     -1.181693316287    -2.476734925972     0.445076626623
O     -1.228588274106    -0.458960155877     1.499343120894
C     -0.080534512210    -2.287608429494     2.617731146050
H      0.784147358373    -2.777112633234     2.155713809790
C     -0.837285700359    -3.306454704721     3.441511342384
H     -0.175796444823    -3.700459505209     4.240626627159
H     -1.720168124170    -2.825513101692     3.909124372171
H     -1.170785761627    -4.146679266529     2.797692830810
N      0.392107773441    -1.224904593251     3.502691055012
C      1.397196194737    -0.395848042063     3.104757502279
O      1.987049780632    -0.471996290484     1.999212879666
C      1.819740255100     0.653404408744     4.060761390956
H      1.665542640956     1.633146559132     3.582147706488
H      1.242091223940     0.580939877629     4.998098497751
H      2.891884846790     0.497366720694     4.272071286235
N      0.847652254204    -0.297748063704    -1.028401399598
C      2.201385968086    -0.108910835392    -1.134512258691
C      2.898661454189    -0.687877806410    -2.175935651479
C      2.249075744015    -1.472171234629    -3.102520423357
C      0.904010105044    -1.681632696546    -2.948531603661
C      0.227486418586    -1.089557756054    -1.858986787715
H      2.719577960723     0.519530455014    -0.419888954586
H      3.958897664870    -0.517165023044    -2.260024747623
H      2.793339900223    -1.927834319030    -3.925247422332
H      0.344896939228    -2.308310274545    -3.613464197829
O     -1.050632319809    -1.409239974490    -1.750088839077
H     -1.300695359647    -1.802494652372    -0.777643581126

