# STO-3G

title

0 1
C      0.287594080437     2.307702478002    -2.332338641742
C      1.002702870927     3.484056887618    -2.651250683420
C      0.753239392306     4.159069605447    -3.865307100018
C     -0.210675159847     3.667979830348    -4.766325842170
C     -0.920298923913     2.492742191742    -4.451507144602
C     -0.669190861624     1.810126741459    -3.242910404190
H     -2.007753909226    -0.966074644572     2.559818246937
H      1.751678988982     3.883492522416    -1.968423601168
H      1.308892545175     5.064879442724    -4.100547248323
H     -0.404124059292     4.190437326441    -5.700275911725
H     -1.661319221064     2.099755825277    -5.144957215792
H     -1.208619509832     0.888927318666    -3.029061630590
C     -1.161455051007     2.151074045345     0.368101495546
H     -1.421203973677     1.441117595825     1.148136452194
H     -1.837133488994     2.185766723994    -0.480232633949
C     -0.171169251464     3.116074647123     0.535341186280
H     -0.056584355286     3.883521287269    -0.213930372309
C      0.571004341622     3.351026029901     1.785274498971
O      1.505478818784     4.194105605191     1.777208670329
O      0.207550384945     2.663492096171     2.952691340026
C      0.943854901828     2.996338076654     4.137829500728
H      0.551795469959     2.402451261776     4.993198348540
H      2.023544655740     2.755945699042     4.014160548938
H      0.826150038298     4.074421883669     4.388767004580
Pd     0.695464523792     1.328067583102    -0.633122016380
C      0.240093265121    -0.471113377604     1.658660286455
O     -0.618024519589    -1.041645826367     0.858281266789
O      1.161632150087     0.333093891011     1.262536221609
C     -0.015792775537    -0.694108491358     3.158052580858
H      0.487320542879     0.073352649493     3.748394366312
C      0.423239480219    -2.062605876890     3.631753232252
H      0.216470915069    -2.157019680798     4.717971545674
H     -0.154542357522    -2.841108962127     3.091472510824
H      1.508468150988    -2.202864186477     3.450952734257
N     -1.466302600289    -0.581181594451     3.329707641446
C     -2.018705487639     0.135410287637     4.341931162280
O     -1.380238713146     0.695970060697     5.263754445830
C     -3.493327275378     0.225572457104     4.308195375449
H     -3.829758410517     0.823348691915     5.173090357938
H     -3.777915578948     0.713170804055     3.361845944177
H     -3.899431925294    -0.799252941893     4.360450352934
N      1.623746373800    -0.100124934666    -1.825759577325
C      2.754825976713     0.225786032428    -2.524703807217
C      3.257884703195    -0.644061728986    -3.468834114504
C      2.630448353678    -1.844172728426    -3.718552894868
C      1.503126345657    -2.150045829192    -3.003083283439
C      1.017579399985    -1.240826814155    -2.037802571219
H      3.250624828746     1.171413679568    -2.338492312085
H      4.146042252690    -0.376567630012    -4.017501397166
H      3.020340003464    -2.531859840404    -4.464355734738
H      0.969205687368    -3.067897263093    -3.149089474928
O     -0.067333869398    -1.635782668768    -1.423110317932
H     -0.341169348370    -1.258869976117    -0.431215383868

