# STO-3G

title

0 1
C      1.529300703606     2.618502510077    -0.594907073163
C      2.798516839567     2.406929117865    -0.011004114834
C      3.809431865984     3.382253829966    -0.138284842880
C      3.563398379998     4.571971278840    -0.850777156704
C      2.299314115051     4.783287234694    -1.433774406092
C      1.282759180203     3.812537006759    -1.306984267219
H     -3.487874250309     0.194234290347     1.953268816718
H      3.002571839547     1.495821075305     0.550277678848
H      4.780695892765     3.209568059207     0.321708437098
H      4.343517466135     5.323470059842    -0.947658831927
H      2.098473390868     5.700645432524    -1.983775749050
H      0.313287214516     3.995941146234    -1.766623340861
C     -1.378057610671     2.542932647003     0.528630528978
H     -1.234987657346     3.570959591385     0.212876183770
H     -2.273306029420     2.055380285511     0.158036554229
C     -0.605415780113     1.980966821716     1.547529228829
H     -0.850452616170     1.010499528994     1.953382873952
C      0.405906824224     2.721017830063     2.322526833057
O      1.251949416278     2.066518087764     2.986407343904
O      0.547536386410     4.106547200170     2.123134315876
C      1.651202296571     4.727701168889     2.795551382950
H      1.657689362482     5.814185054843     2.564206778925
H      1.562881334002     4.604036630728     3.898711967522
H      2.617235504280     4.295833673033     2.449496524979
Pd     0.119036949806     1.206136858934    -0.501204609501
C     -2.674201216199    -0.348990324540    -0.511909635068
O     -3.261886818884     0.483229065582    -1.237740962356
O     -1.349355656589    -0.388829723518    -0.336802006204
C     -3.408493798513    -1.313286405236     0.475077983110
H     -2.986636615725    -2.318800090582     0.376286525920
C     -4.902502029941    -1.382274286795     0.259246107146
H     -5.354573295373    -2.060177939076     1.012164128979
H     -5.342053599358    -0.370436787925     0.383321927122
H     -5.126418762150    -1.757719835512    -0.760202720059
N     -3.159499431519    -0.760682731865     1.813739468964
C     -2.203457442319    -1.104068547449     2.724654462888
O     -1.806843757332    -0.308314493305     3.610712733054
C     -1.669187643950    -2.481899662358     2.684973739182
H     -1.005536114861    -2.617201669343     3.558155842358
H     -2.521958329070    -3.177742458434     2.750670782629
H     -1.090396642964    -2.622246421333     1.757796759123
N      1.326245326229    -0.101932227081    -1.669653319422
C      2.214763042829     0.376765245486    -2.599775836905
C      3.148747020273    -0.465810890475    -3.166169356911
C      3.199586117696    -1.795028427180    -2.813813737670
C      2.286764113903    -2.259838685777    -1.905798120126
C      1.337350117645    -1.373326098100    -1.354795873060
H      2.186956105684     1.417653604550    -2.898106818813
H      3.846837285011    -0.073231780328    -3.887731723429
H      3.937493197910    -2.460725129429    -3.253992159434
H      2.262375391451    -3.287502929916    -1.601920370836
O      0.491887721048    -1.944040343798    -0.522620488038
H     -0.368954146808    -1.367118049440    -0.318044840229

