# STO-3G

title

0 1
C      2.166205229308     2.552168131399    -0.777945830418
C      2.879936200955     1.652618920576    -1.598816259068
C      3.949275644343     2.116595284687    -2.393796821511
C      4.306243702044     3.479019887983    -2.386273272452
C      3.586320373157     4.379578056663    -1.577753914915
C      2.521270708812     3.920117660325    -0.773945113390
H     -0.918246954298    -2.411347044289     2.114216531013
H      2.592088346908     0.604905501547    -1.634701520418
H      4.493585150449     1.413536177753    -3.021821673129
H      5.129649089497     3.833377027197    -3.002343313060
H      3.851278829342     5.435357341886    -1.566563665660
H      1.980537066701     4.633150630722    -0.152776093595
C      1.930958125454     1.033594930441     1.936666927217
H      1.286267962959     0.320884035809     2.447347035814
H      2.750595090593     0.633112548229     1.345711996229
C      1.842100037545     2.403202114315     2.186408492470
H      2.578101177592     3.065517483740     1.757440308006
C      0.957475514262     3.023226078469     3.188044661599
O      0.816151738921     4.274420742175     3.161914793325
O      0.335717104252     2.234927264180     4.167036672200
C     -0.597487954457     2.907019233314     5.022008001645
H     -1.027594801145     2.172568927781     5.736805712473
H     -0.094494326134     3.710901952163     5.605090330900
H     -1.433704935732     3.339731752897     4.427964257965
Pd     0.624163141822     1.910992048286     0.324044630949
C     -1.179757314494     0.026596536628     1.866616203893
O     -0.665766589096    -0.451937123488     2.930078357348
O     -1.140015570214     1.262741533577     1.452521987310
C     -1.874407157279    -1.024741256217     0.926968475082
H     -1.815533934123    -0.699067944803    -0.108543684884
C     -3.323125012744    -1.257808709054     1.291453880743
H     -3.758938920679    -2.017139687296     0.610188170869
H     -3.381309469302    -1.636574881261     2.333438087188
H     -3.895697553148    -0.311605882329     1.205861287373
N     -1.153593587614    -2.289502299611     1.126405085592
C     -0.535869891707    -2.978696342519     0.166131795844
O     -0.478562420945    -2.651450269673    -1.066430886619
C      0.136954984340    -4.231017222027     0.560112150126
H     -0.301310820420    -5.047729901866    -0.037117148873
H      1.209803465033    -4.118911311095     0.334264264621
H     -0.009408337748    -4.430676672061     1.637187102663
N     -0.513870932432     1.813182783249    -1.430254174656
C     -1.285131702370     2.830014570056    -1.920890920393
C     -2.155718730250     2.586958277721    -2.965346402730
C     -2.244937206348     1.329572390524    -3.525371600335
C     -1.448017039273     0.332873507046    -3.021439776609
C     -0.569424763645     0.631020646494    -1.954513341909
H     -1.221007187320     3.818228532694    -1.480349543781
H     -2.766127217949     3.390431885446    -3.344248396813
H     -2.925562969904     1.135224611429    -4.350211524609
H     -1.458988631442    -0.658861321499    -3.428608403811
O      0.212368785269    -0.334957818133    -1.497570467178
H     -0.131437980957    -1.324551891745    -1.460072867243

