# STO-3G

title

0 1
C      1.270040011179     2.797554358484    -0.889090204294
C      2.287262806793     3.321736303508    -0.061401984908
C      3.231928640818     4.220798095724    -0.600933884679
C      3.166457452145     4.597212191118    -1.956526853533
C      2.154450172128     4.065804502997    -2.779451814449
C      1.206314860836     3.164887438399    -2.249572120266
H     -0.254173176744     0.699776463689     2.954349787750
H      2.367111313329     3.010839460353     0.978188832911
H      4.016850262987     4.620380744351     0.038270881827
H      3.895323198862     5.291905701597    -2.367926074326
H      2.099622206687     4.345194604008    -3.830019802375
H      0.435501411844     2.753231563452    -2.899761166936
C     -0.851363961880     3.080472952817     1.248713336146
H     -1.309337103985     2.526327776710     2.061637153494
H      0.040953545476     3.650577729176     1.479716137868
C     -1.516402902956     3.242605286631     0.030792027400
H     -1.104878445622     3.905314828341    -0.715963634718
C     -2.889875740616     2.780472945704    -0.241373875388
O     -3.338996965731     2.902118547386    -1.410974484251
O     -3.703848661550     2.326944832380     0.812037747192
C     -5.000117156230     1.842123788253     0.436489595279
H     -5.543481134401     1.504704227376     1.344894513972
H     -5.598895685887     2.645741038607    -0.049166721408
H     -4.910324212874     0.974832157255    -0.256594337358
Pd    -0.062878649636     1.510965118550    -0.129034248046
C     -1.427277810697    -0.929411138774     1.192662375368
O     -1.508469766295    -1.864011110911     0.318722510364
O     -1.570096992308     0.329573652310     0.923007678198
C     -0.961035960997    -1.252010401168     2.642316969105
H     -0.583651414528    -2.277656205341     2.675046263798
C     -2.064102911832    -1.106651590922     3.665520742182
H     -1.657566890230    -1.312007688717     4.677304640084
H     -2.458700910104    -0.069090579703     3.645032485105
H     -2.885789284081    -1.819130607246     3.446797680641
N      0.086638687405    -0.261148711111     2.952197733156
C      1.398045532051    -0.312233756461     2.581238373309
O      2.089595971582     0.717784629315     2.376062010659
C      2.023418677495    -1.644081863789     2.439545133776
H      3.102396910710    -1.503476881348     2.249458687720
H      1.875138832981    -2.190818806708     3.385864138888
H      1.560692597534    -2.166395726568     1.584411606301
N      1.093915940509    -0.073996138542    -0.966069797259
C      2.461928513859     0.011107807946    -0.887615915568
C      3.253769410375    -0.727792628880    -1.741977937339
C      2.686853716570    -1.552495789827    -2.685648978437
C      1.322379134572    -1.650905159345    -2.723890756069
C      0.540517284372    -0.904172394689    -1.814225563239
H      2.927693899362     0.655676432620    -0.153858876244
H      4.325811814851    -0.637830134215    -1.677560944901
H      3.306870264025    -2.124544195961    -3.370805911721
H      0.818234318523    -2.296262507275    -3.415355882064
O     -0.754226873262    -1.128735060477    -1.896857086764
H     -1.249042148126    -1.357539430326    -0.972249262394

