# STO-3G

title

0 1
C      1.752271772403     3.199657384495    -1.012007924020
C      3.135105645147     2.935435884661    -0.913387316032
C      4.072129161409     3.873813987768    -1.394304657134
C      3.637321221574     5.075307318671    -1.986865754880
C      2.258006335087     5.335550842858    -2.096887776966
C      1.316537682152     4.403466680373    -1.610205524676
H      0.281609282118    -1.906897636064     2.727103575368
H      3.490055518621     2.000955140936    -0.481944145935
H      5.135727403883     3.658891755718    -1.311598495195
H      4.362306441163     5.795450983837    -2.358841014809
H      1.911702241305     6.260036116722    -2.555017249089
H      0.254311055309     4.627715759496    -1.701457657227
C      0.721766656928     2.418454626782     1.789594042804
H      0.415623582708     1.548962927106     2.361161728454
H      1.790353344367     2.610357723796     1.772446456615
C     -0.179896735007     3.346348407105     1.273329141488
H      0.204093150501     4.249596648505     0.825277530554
C     -1.630637365679     3.349362612926     1.525750323272
O     -2.341298698023     4.181440447343     0.904185617814
O     -2.182705104376     2.484490125710     2.486242122191
C     -3.582722089236     2.657324456941     2.750287492178
H     -3.902463810651     1.938193020714     3.535119598686
H     -3.792116169613     3.686433819201     3.121446893856
H     -4.185284716031     2.464504036445     1.833727328159
Pd     0.400897873390     1.860903050277    -0.379679941824
C     -0.602729313956    -0.491986951390     1.023808989908
O      0.674918103930    -0.611844881732     1.217755192940
O     -1.123264757429     0.424184908279     0.279958361690
C     -1.512617171684    -1.495339474330     1.774597716508
H     -2.059421165949    -2.066804340543     1.011695848603
C     -2.514006540783    -0.791337253924     2.665448069738
H     -3.138157740383    -1.532726168922     3.200750489093
H     -1.968374363607    -0.182503167105     3.416756047698
H     -3.171447303323    -0.138191839314     2.056945322180
N     -0.642271526137    -2.324088740345     2.600057454462
C     -0.729552357051    -3.626159302472     2.981082062904
O      0.177651296197    -4.207254770685     3.621746320429
C     -1.954072834609    -4.374042618069     2.611958412766
H     -2.821239146849    -3.869266387907     3.063283431956
H     -2.017379746980    -4.409576846765     1.513383276035
H     -1.867760612907    -5.400372894140     3.013342164199
N      0.985963569800     0.707136635119    -2.020091888110
C      0.635628528035     1.094571377273    -3.285496621665
C      1.205801397000     0.477691220891    -4.379264963166
C      2.131420601003    -0.528580829515    -4.210577562249
C      2.460926726553    -0.901143227954    -2.934248890448
C      1.851890291124    -0.253470337139    -1.838545712889
H     -0.085442518614     1.891511742531    -3.425400468046
H      0.928727500896     0.792925894171    -5.371870454476
H      2.588363550750    -1.015141025440    -5.068278978878
H      3.172782785269    -1.677398280757    -2.733367143957
O      2.251794499828    -0.687265649531    -0.664777068537
H      1.629772308802    -0.534836105538     0.180147559659

