# STO-3G

title

0 1
C      0.505919972489     2.414491728857    -0.705658633174
C      1.347571715817     3.098361227604     0.195504889486
C      2.072832977413     4.225640483626    -0.245785622133
C      1.967949345544     4.667369663203    -1.578938783723
C      1.136138473628     3.972900275332    -2.478301886319
C      0.405287739697     2.846234163079    -2.045803289472
H     -0.378474573977    -1.272043686494     3.955252727795
H      1.465430962818     2.741888902595     1.214801092597
H      2.721494468269     4.750935274219     0.452717557065
H      2.529589442991     5.536685988470    -1.913483380967
H      1.051980356813     4.301133528149    -3.512693438934
H     -0.235246049598     2.319657386130    -2.752044970026
C     -1.643647235423     1.883870132155     1.464094966469
H     -1.028158861612     2.699553556924     1.829314677361
H     -1.821654978763     1.059136935040     2.147854439205
C     -2.413517997284     1.995154110526     0.303028713808
H     -3.097367106043     1.194350786694     0.055385597626
C     -2.555733801348     3.230783217578    -0.486207684655
O     -3.158125290577     3.175339403843    -1.589547900208
O     -1.946142846791     4.415776080521    -0.039097018364
C     -2.015432420065     5.534331339387    -0.933632309388
H     -1.491976252780     6.401713023589    -0.477312072142
H     -1.513011469333     5.299222113082    -1.899054711599
H     -3.073311593593     5.824123623806    -1.125504594959
Pd    -0.521860784096     0.797867495337    -0.138347425142
C     -1.725633020439    -1.382362746767     1.574808453848
O     -2.585109859719    -1.243937699052     2.475438297006
O     -1.875744892986    -0.953137360937     0.316249631670
C     -0.308899891188    -1.933742228892     1.950066083242
H      0.390606528018    -1.776358329009     1.127004957407
C     -0.333428544912    -3.397989851600     2.324303568527
H      0.689043077232    -3.724765652896     2.605349349025
H     -1.007739178235    -3.546619481794     3.193729363696
H     -0.690989174095    -4.005929345498     1.468054224277
N      0.167774538696    -1.168985650833     3.107134032956
C      1.022292103487    -0.124433461023     2.974909592784
O      1.536029468919     0.261768829494     1.892635515653
C      1.335855739915     0.597277204665     4.224550177639
H      2.041475819380     1.415827711349     3.999465067521
H      0.392265462041     0.994170349040     4.635380733035
H      1.790758250643    -0.122300801201     4.927827900031
N      0.845771352633    -0.465029947522    -1.162419362149
C      2.177741512364    -0.144194125554    -1.240311810814
C      3.028631590571    -0.911491994127    -2.010582463062
C      2.558596942088    -2.008568588949    -2.696193246561
C      1.233588518229    -2.332047132336    -2.572817082425
C      0.395767120910    -1.534018554007    -1.766326353298
H      2.570528027114     0.709235299522    -0.702886163258
H      4.070607064222    -0.642945899649    -2.070912386481
H      3.225926959440    -2.612629298843    -3.305250577479
H      0.810172593457    -3.188775060226    -3.058358435263
O     -0.839449931908    -1.976599510634    -1.663864691033
H     -1.380811548368    -1.570945160100    -0.847649721373

