# STO-3G

title

0 1
C     -0.023313918883     2.814715345183     0.355866894597
C     -0.124059578208     3.871618706907    -0.575847046728
C     -0.854049863247     5.036793253427    -0.255145364991
C     -1.488270109810     5.153847334765     0.996909229578
C     -1.402765794290     4.094145514177     1.920816436094
C     -0.673233056558     2.928887878070     1.603656051431
H     -2.610944541571     1.640605614394    -0.973135355619
H      0.354239163883     3.798671746800    -1.551802017804
H     -0.921981078221     5.846482055325    -0.979177623075
H     -2.046431880435     6.052938694162     1.246821405216
H     -1.907034187859     4.164043715019     2.882231042075
H     -0.635775067661     2.115776818178     2.327291511838
C      2.880477785128     2.242685254787     0.203443286375
H      3.671888416750     1.774114979960    -0.372721046824
H      2.606306934302     3.257181108894    -0.066014287623
C      2.472246821910     1.717901503034     1.438456731955
H      1.834777687407     2.307326650827     2.080239121323
C      3.082652911536     0.547715514516     2.095974293775
O      2.722208956495     0.260359460033     3.265909645901
O      4.113621659852    -0.156382828313     1.449645470853
C      4.613452186320    -1.306844941513     2.146067673318
H      5.398408120661    -1.797383628537     1.531592667276
H      5.063079915702    -1.015109274295     3.122183262832
H      3.799362174160    -2.047515341772     2.322367662865
Pd     1.000222886721     1.161198926378    -0.186443509334
C     -1.504092899227    -0.246719640432     0.128238946651
O     -0.932464976711    -0.908450952753     1.063571733496
O     -0.865183357659     0.409625147060    -0.808419589890
C     -3.032454681533    -0.101695241353     0.104850726240
H     -3.427446229098    -0.246635791030     1.113972788244
C     -3.697040928317    -1.082068056283    -0.837490169970
H     -4.797502858161    -0.947341452436    -0.787706016350
H     -3.360464346329    -0.878309744579    -1.874729068278
H     -3.442322751125    -2.123439505476    -0.552537864908
N     -3.320686612242     1.258294688685    -0.353329880968
C     -4.263489693556     2.014566432087     0.264520608642
O     -5.013214732578     1.604397929455     1.183534807551
C     -4.403104461198     3.411170300127    -0.201425927881
H     -5.429737651343     3.530092050342    -0.583595973772
H     -4.237569281818     4.062350035175     0.671223679706
H     -3.665075388427     3.635823423805    -0.991096379050
N      2.037090113383    -0.592353618558    -0.892011477532
C      2.779305803989    -0.494953525041    -2.039051360109
C      3.549071466974    -1.558859424635    -2.461558376483
C      3.572488368577    -2.733841314001    -1.742970071745
C      2.803757308535    -2.819029746984    -0.613189786304
C      2.018874945614    -1.712479120859    -0.220768889921
H      2.775304933041     0.428753827768    -2.605712159708
H      4.136121763113    -1.467373806238    -3.360771234967
H      4.177142107510    -3.575534796951    -2.070189295625
H      2.758804308222    -3.709888965510    -0.019286815243
O      1.300865855245    -1.913669974002     0.859521835637
H      0.385718087803    -1.376157191642     0.995057505754

