# STO-3G

title

0 1
C      2.774281138366     2.070269875646    -0.247794356938
C      3.917278275919     1.270973523840    -0.025862207594
C      5.204262061282     1.849708522019    -0.042669515779
C      5.361421610230     3.226973640635    -0.290519607443
C      4.223982416234     4.025773803705    -0.518394061644
C      2.934910124908     3.453135850887    -0.494677401685
H     -3.936855701788     0.178723183264     2.073632071040
H      3.815682065681     0.201050964343     0.149604379879
H      6.076959674932     1.223633523687     0.134117760989
H      6.354150618346     3.671190708744    -0.303871793726
H      4.334859894497     5.091739066616    -0.709066579602
H      2.067976004868     4.089270321326    -0.670097869707
C      0.802777189271     1.062956147778     1.910816472879
H      0.033414533357     0.316972390877     2.085693551462
H      1.819671118526     0.741651736001     2.116907542409
C      0.529598001455     2.404920044512     1.643456037566
H      1.353725882027     3.098916808457     1.591032223541
C     -0.791278512592     3.049036410043     1.750842022793
O     -0.880502534833     4.254120213906     1.395502043342
O     -1.780549106396     2.452065766350     2.550870955497
C     -3.029978750866     3.155324265947     2.616408650453
H     -3.750323239361     2.576181835413     3.231219243197
H     -2.897636988460     4.158402094412     3.080377358768
H     -3.471128251526     3.272381503855     1.600238529463
Pd     0.953569981361     1.240364928143    -0.325704100692
C     -2.136417007752     0.458083549124    -0.151601284604
O     -2.592938863501     1.622615953656    -0.211189843329
O     -0.877061298771     0.133211011458    -0.424271987781
C     -2.978748474410    -0.732755463631     0.398207259658
H     -2.401641178388    -1.656198333309     0.304766493098
C     -4.313468820164    -0.885228573026    -0.295815773561
H     -4.870816565257    -1.730741993719     0.157581667815
H     -4.905359635860     0.044874158213    -0.167944349406
H     -4.161754169877    -1.082176531650    -1.376576818056
N     -3.222747398938    -0.494122845340     1.824673352561
C     -2.311498666285    -0.880652245778     2.759309871969
O     -1.236272843814    -1.477872548878     2.507639158954
C     -2.658363540567    -0.562348841309     4.159638924219
H     -1.871730755067    -0.966526665671     4.819849270281
H     -2.708840479218     0.534477604258     4.249846505390
H     -3.634447118081    -1.024608130622     4.385839728307
N      1.486491314181     0.289025810670    -2.149461453684
C      2.306091911886     0.898449601414    -3.065026154513
C      2.844129283775     0.171439668370    -4.106581525553
C      2.561424357290    -1.168352859604    -4.246331518625
C      1.721884605688    -1.752267538570    -3.336191409805
C      1.178852678457    -0.977164991825    -2.289463246995
H      2.535040224483     1.953369307274    -2.974802885048
H      3.493700268481     0.661109984924    -4.813822179943
H      2.985844488408    -1.745390693289    -5.063759073926
H      1.449202109065    -2.787322504045    -3.397167711519
O      0.365036334346    -1.638104482098    -1.496334788505
H     -0.251593398212    -1.014044656595    -0.897517603764

