# STO-3G

title

0 1
C      1.249418584649     2.742630822129    -0.468801318197
C      2.099639243798     3.254056774443     0.536187752003
C      3.053340282766     4.241392438097     0.208647036004
C      3.157772513920     4.725420108224    -1.109853213086
C      2.300232287266     4.220455358972    -2.106739214727
C      1.345966067900     3.230627891504    -1.789876835722
H      0.777397311477    -1.966054817013     2.215643585532
H      2.020257372278     2.889350139672     1.558213749980
H      3.706618451687     4.633210193930     0.986112181435
H      3.890854563442     5.490344323561    -1.356179296071
H      2.366717303122     4.594985036355    -3.126792498221
H      0.687998501740     2.849527602163    -2.570016453023
C     -1.199686348727     2.611542812259     1.385147834837
H     -1.755099705658     1.914059175431     2.000749357370
H     -0.427228954474     3.178270404592     1.888305420318
C     -1.603015490989     2.920539581588     0.085064200373
H     -1.114514766229     3.715615995731    -0.455433892526
C     -2.807149613326     2.378654483277    -0.566452061773
O     -2.969030953598     2.586934236194    -1.796517707719
O     -3.666738634451     1.542751073624     0.158700097023
C     -4.649173153667     0.828538380582    -0.602620123249
H     -5.240808658965     0.183637001941     0.083886782903
H     -5.343924125860     1.530406524525    -1.116005325135
H     -4.161474441694     0.164844777950    -1.352375802589
Pd    -0.009876675415     1.276280754093     0.025211036332
C     -1.964185976927    -0.853788004611     1.657096965581
O     -3.182516912291    -1.116235759382     1.719492929745
O     -1.341760427307    -0.370347793166     0.577538833718
C     -1.047255130570    -1.215646829425     2.878323679069
H     -1.262910949245    -2.276288657527     3.067276667451
C     -1.410141900598    -0.463008914822     4.143215310729
H     -0.745018681570    -0.784780712999     4.971051482623
H     -1.298804918852     0.627605062321     3.997744121441
H     -2.462369676739    -0.679206476226     4.423184497556
N      0.392716630166    -1.121106072233     2.622221997828
C      1.185464236752    -0.019400039165     2.615295239714
O      0.835503722521     1.156174696372     2.890011089448
C      2.598381918362    -0.274381179480     2.255611069578
H      3.160877410089     0.674335759878     2.295803950510
H      3.003709118427    -0.989646458527     2.991652939584
H      2.628704282499    -0.707419990082     1.241179871771
N      1.042358497959    -0.086672424374    -1.247651710407
C      2.361013381468     0.085841497055    -1.585354036257
C      2.909116367747    -0.622856204497    -2.633722755349
C      2.145393125509    -1.512635642390    -3.354240285564
C      0.837027596014    -1.684978661179    -2.992396518464
C      0.308781973858    -0.952606959688    -1.907512147221
H      2.983566379219     0.771656581753    -1.023612475726
H      3.945174277678    -0.472842831662    -2.890502383791
H      2.572435167609    -2.070362717238    -4.183630239335
H      0.191376797524    -2.371592193830    -3.503588084150
O     -0.948229950823    -1.220459147808    -1.643290799523
H     -1.304695452583    -0.862458312509    -0.699685919904

