# STO-3G

title

0 1
C      1.218665941786     3.026089087302    -1.299028185619
C      2.549511066992     3.284232649304    -0.901805072107
C      3.265163804617     4.361022868111    -1.466919375456
C      2.662476086427     5.183217956031    -2.438453846189
C      1.337672280215     4.925450705754    -2.840910973618
C      0.615955807909     3.854260876434    -2.273480685280
H     -0.075156517371    -2.801982883213     2.171991559991
H      3.036047911416     2.649654449447    -0.162450102662
H      4.288445306437     4.552240552375    -1.148575930672
H      3.215343288019     6.013069062601    -2.872911909094
H      0.862025578557     5.556418070145    -3.589607847937
H     -0.408406866671     3.673690642779    -2.597340728195
C     -0.189968428699     2.503190577587     1.369454045072
H     -0.388251914483     1.719289963647     2.096967969774
H      0.758710962629     3.023052810398     1.470912171913
C     -1.158237236337     2.976481554556     0.483282576870
H     -0.929954620856     3.834555972292    -0.130185957142
C     -2.592635842293     2.641244478302     0.542595717704
O     -3.345821280105     3.135944099343    -0.337553863911
O     -3.117325056910     2.062833976875     1.711823233699
C     -4.537521476866     1.862164653828     1.727272583703
H     -4.830097843148     1.383073624897     2.685606664695
H     -5.075656734996     2.832999032890     1.643290890480
H     -4.850813279956     1.191494302305     0.894788376954
Pd     0.235277842576     1.442955804651    -0.571607652162
C     -1.829763787050    -0.718172144015     0.630446968963
O     -2.869476490104    -0.346596106295     0.051599363902
O     -0.602062447928    -0.320671988633     0.298262747978
C     -1.861913262185    -1.743343969701     1.810182605682
H     -2.170532086075    -2.703777270064     1.376061413575
C     -2.881718043189    -1.367933302212     2.866429786590
H     -2.844492033544    -2.100564555431     3.698647983085
H     -2.663153851882    -0.355715512770     3.264374912885
H     -3.900806213472    -1.366898759020     2.427731868954
N     -0.554250694762    -1.950670930727     2.439168198443
C      0.159707797179    -1.008340143115     3.114326113040
O     -0.218779038286     0.162632679623     3.353782328980
C      1.485141918706    -1.449932611050     3.598241009488
H      1.958283905635    -0.619366953905     4.149783507976
H      1.326700276618    -2.315934262050     4.262033130276
H      2.095965197583    -1.734536398652     2.723335527495
N      1.552308861651     0.151943491816    -1.650331345570
C      2.067827684536     0.513031083480    -2.869420443241
C      3.108492962933    -0.203857200316    -3.423060996732
C      3.635275673159    -1.294162207898    -2.768733121514
C      3.090077456174    -1.653603995868    -1.565679248286
C      2.018512477609    -0.904898350082    -1.033667061756
H      1.661008111730     1.362620278207    -3.404126454173
H      3.509142480711     0.096381745966    -4.377657485446
H      4.454976126820    -1.861710730485    -3.201463180168
H      3.438240852512    -2.504753379820    -1.014945672081
O      1.552841621532    -1.362086346590     0.109816856638
H      0.579197632379    -0.960814364561     0.363425611451

