# STO-3G

title

0 1
C      0.987339673759     2.351102675518    -1.156672822479
C      1.999325308339     3.118236493482    -0.540954611588
C      2.474810347240     4.289657622916    -1.168490775612
C      1.944531048702     4.701867133078    -2.405866425402
C      0.934937826046     3.935133115984    -3.019328714499
C      0.457737840683     2.760934199225    -2.400436967243
H     -1.933367816157    -1.123660273473     4.053138641367
H      2.424825754250     2.817348184389     0.414130227298
H      3.254291331803     4.875967618472    -0.685955042981
H      2.311593947604     5.606867310653    -2.884261038167
H      0.516308113902     4.244315321597    -3.975230524954
H     -0.323498649460     2.179205963945    -2.887604611412
C     -0.257023741892     1.685663066408     1.566418101713
H      0.360806570296     2.563185140573     1.721593823050
H     -0.073630469204     0.875422879506     2.260052934840
C     -1.382227102801     1.711871233354     0.740408388199
H     -2.059063769629     0.865685498590     0.725025984376
C     -1.874795810097     2.920335242514     0.055612891226
O     -2.777037507078     2.797187530653    -0.812539367390
O     -1.245094793619     4.155473574352     0.289711039661
C     -1.690340265837     5.251319282362    -0.520933087742
H     -1.117478633343     6.164130512188    -0.250683290237
H     -1.513505859648     5.041189021154    -1.599975170359
H     -2.772528156896     5.453969808024    -0.354175304201
Pd     0.356361243590     0.645589847248    -0.331019883522
C     -1.091086549855    -1.425037995471     1.585646116125
O     -2.327623361959    -1.206950736666     1.622670717938
O     -0.329987230888    -1.307672870863     0.497233229304
C     -0.318463893333    -1.772488813304     2.882820807049
H      0.723634417182    -1.463821116590     2.777474182947
C     -0.372141668936    -3.249489945032     3.204196036838
H      0.204490323866    -3.445854296968     4.131706667752
H     -1.427532751909    -3.550282973420     3.372091459797
H      0.058863904542    -3.841998476850     2.371260591295
N     -0.923627441690    -1.039797595816     3.994978444538
C     -0.251783982863    -0.044583666093     4.632892839563
O      0.914906171687     0.325105511311     4.345097676771
C     -0.967720222945     0.646170287934     5.726649105222
H     -0.354400049172     0.547712929342     6.637622909635
H     -1.067133663171     1.705878987819     5.441054882598
H     -1.963006078293     0.195404400471     5.889248243266
N      1.243024786869    -0.448432939327    -1.916112272369
C      2.374490877590    -0.014294489407    -2.559854993867
C      2.787532321121    -0.624322163973    -3.725952084099
C      2.077274330271    -1.676786695202    -4.256999950359
C      0.966150239558    -2.112247192830    -3.586979536756
C      0.577652964637    -1.475183657448    -2.389430968548
H      2.952396079069     0.807737313537    -2.155534900893
H      3.673076750431    -0.266609204938    -4.225804277139
H      2.396635906871    -2.156787684661    -5.178409642436
H      0.377853702511    -2.937211387807    -3.937815469322
O     -0.481813698433    -1.999803580173    -1.820090763140
H     -0.607290233667    -1.724993139137    -0.800849116431

