# STO-3G

title

0 1
C      0.614384614028     2.358276104443    -0.741162713475
C      1.496939476063     3.004819190519     0.148205352445
C      2.305300970425     4.063739428578    -0.317236051020
C      2.242596064027     4.473818583502    -1.663088863396
C      1.369410691518     3.815813497268    -2.550568489167
C      0.555703844836     2.757611782848    -2.093779106891
H     -0.574124744669    -1.123945417684     3.991918897215
H      1.580842865705     2.669939526243     1.178057371971
H      2.985168100406     4.560402037905     0.372492664788
H      2.868171590170     5.290412161665    -2.016468902501
H      1.317092706805     4.119544124626    -3.594518536944
H     -0.115523399199     2.258254345337    -2.791229151127
C     -1.570501449677     2.046718765985     1.435295261890
H     -0.896331081553     2.822847808408     1.782450592114
H     -1.811404132058     1.255948168263     2.139752671517
C     -2.328953117443     2.187614579039     0.269876309276
H     -3.071963940435     1.435670436039     0.040191095593
C     -2.375012905348     3.410154069123    -0.550469835608
O     -2.978478422480     3.373219060869    -1.653985660069
O     -1.675870002876     4.555435523154    -0.131791758311
C     -1.656093812596     5.652174385540    -1.055320544378
H     -1.067616649022     6.487879926099    -0.619627646715
H     -1.171549034595     5.353439623641    -2.012242240255
H     -2.687793136551     6.018244820443    -1.258965712790
Pd    -0.534347680699     0.838830265267    -0.138415769247
C     -1.892170373131    -1.199522550065     1.623793051420
O     -2.738751566397    -0.978986002114     2.520632801919
O     -2.013615568909    -0.792522188730     0.355129660774
C     -0.518404016396    -1.841041457357     2.014473512624
H      0.192552282082    -1.749739719320     1.191525635591
C     -0.646910095692    -3.292456740816     2.416761482779
H      0.349333249219    -3.684746643007     2.707991273031
H     -1.332014610291    -3.376389292381     3.286418734759
H     -1.044273774489    -3.890328437787     1.571031365607
N      0.006032398318    -1.089781261420     3.160956527766
C      0.941044617859    -0.118117965237     3.008227554797
O      1.475910606764     0.201064311968     1.913414017422
C      1.348094482947     0.613568301490     4.227336708633
H      2.438816835781     0.491980273835     4.336982450730
H      1.091568087600     1.675365415440     4.084064259408
H      0.834988813937     0.210317434211     5.118868191181
N      0.735291344791    -0.549604148695    -1.124266851624
C      2.088222734311    -0.333481097006    -1.201524468970
C      2.881185021866    -1.182461790598    -1.947510610348
C      2.331397216948    -2.256853335601    -2.609395537341
C      0.984870270788    -2.474650798683    -2.486845941340
C      0.207162828583    -1.595216846113    -1.705243708239
H      2.542697204245     0.500632095009    -0.682604699943
H      3.940935105041    -0.996015305066    -2.007811408912
H      2.953124264794    -2.925041701570    -3.199437528106
H      0.499084626071    -3.307961170863    -2.954437479447
O     -1.059133315133    -1.938838521712    -1.600377656222
H     -1.569437706658    -1.474676843620    -0.796746243518

