# STO-3G

title

0 1
C      1.313496042045     2.907441067228    -0.712449111715
C      2.286616480315     3.403605269949     0.181790579785
C      3.165873381277     4.423083525675    -0.240867247975
C      3.081932971818     4.943778418203    -1.546908907766
C      2.117235297304     4.436460149017    -2.438493050023
C      1.232840358305     3.417365376758    -2.025154946244
H     -0.020462237761     1.013559668774     2.661566051990
H      2.385815066455     2.977965376350     1.177462502253
H      3.917223644467     4.801695332125     0.449468489162
H      3.761565259256     5.730062843947    -1.867677465530
H      2.050441756874     4.825713463179    -3.452783912603
H      0.501627967151     3.024810448819    -2.730672740783
C     -0.982728848772     2.907659727679     1.188684848404
H     -1.436793962010     2.361127730101     2.010147782365
H     -0.187041170701     3.598609890345     1.441847952917
C     -1.606757453706     2.957701588838    -0.060090735828
H     -1.254794188569     3.651381576218    -0.808048604119
C     -2.888985071643     2.300608627824    -0.368742989116
O     -3.316062796910     2.340116038075    -1.551114761415
O     -3.598866443953     1.645132127985     0.651984944037
C     -4.720372916381     0.857829099501     0.227297282586
H     -5.181717186210     0.366711124781     1.111182404578
H     -5.490478246561     1.492948780391    -0.265727899478
H     -4.395470154979     0.053397152040    -0.472311502684
Pd     0.085278622484     1.442660239658    -0.120242420542
C     -1.820589183949    -0.918843227790     1.323886457286
O     -2.795401496274    -1.690091119913     1.204378657026
O     -1.321062846061    -0.182662968191     0.325343211971
C     -1.078571345066    -0.826468764986     2.705123328859
H     -0.827315400943    -1.862444547005     2.964322327358
C     -1.983510835739    -0.306886736791     3.802062879134
H     -1.426471673263    -0.274600133569     4.761507446572
H     -2.331470867931     0.714979081220     3.553303861636
H     -2.865936384811    -0.970707929889     3.917391563561
N      0.122911047115     0.007137037560     2.673266511286
C      1.377770786135    -0.318362266840     2.262966997879
O      2.240886297707     0.549581843873     1.968654013316
C      1.729417096103    -1.750349393226     2.166068533181
H      2.786228754328    -1.827958616424     1.852952856988
H      1.598959799279    -2.203560821685     3.162773142290
H      1.083764060723    -2.225941014227     1.407832620446
N      1.295629658141     0.023239556550    -1.120043384864
C      2.663103117593     0.130850592410    -1.141971282824
C      3.409947669126    -0.724197881670    -1.927188479518
C      2.796887046820    -1.687466906955    -2.696018976787
C      1.432689721382    -1.791740836719    -2.639847613604
C      0.700385703815    -0.913847211438    -1.813174251456
H      3.164850290096     0.880735274413    -0.544502224443
H      4.482954834296    -0.624158083323    -1.941067538027
H      3.381830416138    -2.356149930353    -3.321966992027
H      0.894639780061    -2.531403324316    -3.198975093566
O     -0.595392964277    -1.136071056031    -1.799740129501
H     -1.099205011369    -0.728004240994    -0.960200030022

