# STO-3G

title

0 1
C      2.357103096122     1.604358862544     0.678743162275
C      2.900946608926     0.735708136986     1.648463447170
C      4.277736248728     0.805167212335     1.952106250491
C      5.111028151227     1.728927879041     1.292176466117
C      4.564421745678     2.587576890200     0.318631947207
C      3.189096098247     2.527857301800     0.009951258323
H     -2.752438677154    -1.530444179176     1.937678993884
H      2.271612624402    -0.007326631017     2.129919076733
H      4.695647487375     0.132913658562     2.699320784425
H      6.171131992895     1.779010424533     1.530876948978
H      5.200084329866     3.303240211911    -0.199791723337
H      2.779088705344     3.196490789956    -0.745879332877
C     -0.227861923433     2.219257311968     2.237872792382
H     -1.275369123099     1.937879330783     2.315339694975
H      0.473564287880     1.695395130730     2.879228896979
C      0.167692060752     3.363180438129     1.539384243077
H      1.192146704135     3.696707424053     1.599599661378
C     -0.755694651732     4.318022859157     0.901205861816
O     -0.272696261787     5.201207020078     0.145770756009
O     -2.135024168901     4.230365401574     1.141457557714
C     -2.966072091900     5.122056964435     0.387200525807
H     -4.029354630393     4.945017998793     0.658676980859
H     -2.718672182265     6.183525366961     0.614322902041
H     -2.853971283734     4.936346984228    -0.704931504082
Pd     0.412060758974     1.527523728697     0.212716651783
C     -2.474024139089     0.741021134708     0.354510079215
O     -3.256957651757     1.027929634560     1.288195667258
O     -1.760031852967     1.633358558313    -0.342695552732
C     -2.176111023566    -0.767268335039     0.051407653925
H     -1.269734775057    -0.856571566483    -0.550558831067
C     -3.321751091409    -1.454650198424    -0.655774193812
H     -3.066496198546    -2.521587727048    -0.822200756700
H     -4.232968374024    -1.399158643296    -0.024018241049
H     -3.516131985762    -0.966689485621    -1.632911794989
N     -1.946309050608    -1.447055124694     1.328937432972
C     -0.702729663724    -1.555185865416     1.856225105987
O      0.358232758790    -1.176250011762     1.293957314262
C     -0.633317065101    -2.165155324906     3.199152809550
H      0.422005721232    -2.213421782843     3.518618426689
H     -1.223727520486    -1.536995837442     3.887628860279
H     -1.065445542091    -3.179209289527     3.134878890394
N      0.834669145555     0.392753832702    -1.540302143131
C      1.895938615264    -0.476078188350    -1.584152886538
C      2.244729489378    -1.081893006743    -2.774604165282
C      1.531064795565    -0.833628330718    -3.924986972979
C      0.452790886500     0.006954146295    -3.850500112773
C      0.116447217041     0.598092887232    -2.614874155358
H      2.464317999008    -0.695928583218    -0.690256191121
H      3.086165454332    -1.755012014325    -2.796593625067
H      1.805662978981    -1.306844506457    -4.864063931135
H     -0.160699593410     0.221272841421    -4.702991740831
O     -0.975202239035     1.331271486036    -2.644639744981
H     -1.386475865996     1.534148220294    -1.684854083642

