# STO-3G

title

0 1
C      1.055080529048     2.874190089280    -0.934853383029
C      2.290625984463     3.170248198055    -1.546992811102
C      2.376119016146     4.205033567230    -2.502738967251
C      1.230509337763     4.944420554375    -2.855069164642
C     -0.005023923767     4.643156656198    -2.249038812969
C     -0.095987619098     3.612198369218    -1.290592626798
H     -2.623942002841    -1.097190449988     2.599230702368
H      3.180355712625     2.593383456929    -1.299735257403
H      3.334109619857     4.425511063624    -2.970281263999
H      1.299492905551     5.742065837131    -3.591409334864
H     -0.896172106326     5.207301374475    -2.518470502461
H     -1.058972938431     3.381193037090    -0.838218626172
C      1.952546170472     2.461972053217     1.917455603197
H      2.333112540835     1.662948245547     2.547970527884
H      2.683950831218     3.030405149770     1.353523876800
C      0.621496857733     2.903437656928     2.019833388383
H      0.318661208062     3.786975088522     1.477762276324
C     -0.326133957707     2.464148943469     3.059333005467
O     -1.503733565487     2.908881628753     3.018397594229
O      0.131850017495     1.711234669216     4.154091327759
C     -0.886846991930     1.174662624195     5.008394055912
H     -0.410386082724     0.588385356303     5.822988657222
H     -1.488939168240     1.989050773564     5.471096097434
H     -1.555886388345     0.490709254723     4.437540436484
Pd     0.834226983951     1.384705619640     0.375678338386
C      0.379297924614    -1.333163333198     1.590440665070
O      1.403350164817    -2.036991277474     1.268837411985
O      0.419163011084    -0.083115488818     1.902220304568
C     -1.024263094990    -2.002864945999     1.568376017066
H     -1.073578314182    -2.703905733455     2.411548958203
C     -1.264721943446    -2.786191072441     0.292540988621
H     -2.287085597491    -3.216803063416     0.307643096956
H     -1.168901150793    -2.115604922396    -0.586161913990
H     -0.526237638946    -3.609565977148     0.202707658494
N     -2.105938375679    -1.025173022871     1.733758615944
C     -2.337784758972     0.051308643512     0.938043276281
O     -1.667649316489     0.375561528204    -0.076134943872
C     -3.511389675887     0.868529550776     1.314343447681
H     -3.601597060084     1.712524201388     0.609184683807
H     -4.401821179022     0.220782863550     1.263289179259
H     -3.362228447493     1.244990949547     2.340926043892
N      1.202454805959     0.054946846112    -1.263197424650
C      0.455659198975     0.234513485522    -2.398792484013
C      0.896810203229    -0.279741023729    -3.602019267017
C      2.079695675814    -0.981306770263    -3.672054023887
C      2.790318475076    -1.174704888585    -2.516780193043
C      2.295697378708    -0.652682621987    -1.301333131750
H     -0.465935387943     0.802780869450    -2.359829268270
H      0.310808428319    -0.117227871074    -4.491276336139
H      2.433556778496    -1.382708227343    -4.617815725550
H      3.703049190144    -1.735267287523    -2.495531000202
O      3.020807740671    -0.945926978310    -0.232615111647
H      2.438436378672    -1.307645168409     0.578521587955

