# STO-3G

title

0 1
C      1.295002328580     2.792236392203    -0.404415891002
C      2.704386536161     2.812738797221    -0.346166759377
C      3.402108259242     4.029353622060    -0.497317397743
C      2.699898573004     5.230456016865    -0.716308650043
C      1.293648697067     5.210293237545    -0.783493284822
C      0.590495767440     3.996329783436    -0.630896801763
H     -2.463659898027    -1.091328884397     1.718803095442
H      3.263789396946     1.891322285077    -0.195297804527
H      4.489114777058     4.033550536525    -0.446166956500
H      3.240872249081     6.166979735032    -0.829149184228
H      0.742934917782     6.134300116630    -0.947022769706
H     -0.497340343632     4.006127472546    -0.676922189682
C      0.680738194871     0.855775643790     1.917945909828
H      1.587438572401     1.398135497539     2.165954798952
H      0.760004998766    -0.226646160277     1.942950315125
C     -0.558410476921     1.488708835008     1.842875294396
H     -1.451977755870     0.893982198065     1.750882762216
C     -0.792598408943     2.901391801851     2.188459982998
O      0.161281694897     3.609245599104     2.608399308220
O     -2.029397000595     3.475944177409     1.849184880041
C     -2.188482140215     4.860567416467     2.188986104449
H     -3.202378738462     5.200094911748     1.886450429507
H     -2.086375069462     5.010813704591     3.287991793972
H     -1.435879677703     5.488207065322     1.659418154354
Pd     0.282841828675     1.074300315302    -0.283819035342
C     -0.418461013219    -1.833601653389     0.269196953262
O      0.818957584747    -2.151935925031     0.104239567777
O     -0.953558872008    -0.726591017851    -0.136924267384
C     -1.306317459504    -2.740005802184     1.158800132649
H     -0.667715711786    -3.496416224090     1.621556081375
C     -2.403221689341    -3.434039066614     0.383429443344
H     -3.004878983359    -4.057843651087     1.076262073616
H     -3.070638470216    -2.675521571477    -0.076908743490
H     -1.968127824120    -4.077687704051    -0.408482811522
N     -1.932052252771    -1.849437313686     2.143729279773
C     -1.563756317718    -1.577817705649     3.429483590058
O     -1.907597793861    -0.526819268747     4.021176713293
C     -0.750843090782    -2.588488513124     4.139768860751
H     -1.295158666129    -3.547309244440     4.107242827294
H      0.233729338818    -2.654834237412     3.650774470997
H     -0.625820496886    -2.261481815003     5.188450411134
N      0.859203055226     0.728412075499    -2.259302427031
C      0.492270863564     1.611883360705    -3.239328338169
C      1.051778475810     1.522604506115    -4.496272496391
C      1.984297963571     0.550483813610    -4.778773790108
C      2.329904823876    -0.326981590819    -3.785693265800
C      1.731356161593    -0.215484292052    -2.510814479479
H     -0.237708150550     2.383638175273    -3.025255185306
H      0.760496659742     2.227206603818    -5.257844603239
H      2.433545615413     0.479841776212    -5.765837242285
H      3.048282771077    -1.106550692972    -3.943155378026
O      2.147102772839    -1.107970554833    -1.649903372494
H      1.557291291582    -1.465658681144    -0.809445757682

