# STO-3G

title

0 1
C      1.244788845140     2.958993215289    -1.207748806915
C      2.286490562873     3.729810780524    -0.645583443170
C      3.131865669455     4.492873737174    -1.479868316112
C      2.942611294240     4.493581611500    -2.874868757648
C      1.905981200131     3.722149998022    -3.436016827372
C      1.061487135030     2.954223337531    -2.607661967158
H      0.257034922776     0.285702618597     3.288405801996
H      2.457490406215     3.736247754058     0.429368022269
H      3.933548802817     5.081872753375    -1.038605529897
H      3.593805804721     5.082956889412    -3.516253867289
H      1.754637035796     3.710153469858    -4.513793939739
H      0.275426109989     2.350086375599    -3.058640960434
C     -0.752423227350     3.606904230659     1.054676661717
H     -1.075580200270     3.176687409855     1.997326345875
H      0.089693211975     4.289738780710     1.081018842837
C     -1.514141504298     3.471801469484    -0.108156345998
H     -1.222047038163     4.003951067621    -1.001621284329
C     -2.843037021260     2.835795903458    -0.174994334437
O     -3.378808814427     2.689885637848    -1.303945006774
O     -3.494257345870     2.430922213438     1.003293299231
C     -4.719644156526     1.707603089823     0.823788966617
H     -5.135936984788     1.437285027076     1.817785404094
H     -5.472862458250     2.329027125629     0.288217031085
H     -4.541745702527     0.766525506260     0.254436287773
Pd     0.063493738069     1.844178674944    -0.036716854677
C     -1.436683928783    -0.453152753474     1.395703352972
O     -1.818681890210    -1.106990708660     0.363380748601
O     -1.132805441843     0.807080614498     1.408814320258
C     -1.104328527630    -1.199420457048     2.719824533051
H     -1.123218087838    -2.276943640132     2.535586120322
C     -2.061697611766    -0.878905547343     3.844723164452
H     -1.742154069061    -1.413838899377     4.762782761480
H     -2.047143961682     0.212410451388     4.047322394979
H     -3.090530081783    -1.192011830412     3.573352667726
N      0.235421438019    -0.717262827839     3.100934928611
C      1.425862580698    -1.137639428152     2.578661633072
O      2.432668061722    -0.390036764064     2.498503096449
C      1.525537381828    -2.542032201486     2.125277086479
H      2.573470492295    -2.736459839789     1.834631920852
H      1.238016848320    -3.191672213974     2.968447705848
H      0.868823446783    -2.682310289732     1.250091287934
N      1.201467705921     0.192025913158    -0.673765710950
C      2.551451476747     0.200719607592    -0.433043750298
C      3.374968602493    -0.684775887480    -1.098123695124
C      2.854756676911    -1.580065801710    -2.004657567748
C      1.500375515916    -1.583012747036    -2.210860411250
C      0.685212755923    -0.675578751525    -1.500068224701
H      2.973111410560     0.915112317450     0.264365529858
H      4.434631155418    -0.663544539320    -0.903486865336
H      3.501432822696    -2.272884427850    -2.536318976054
H      1.030258735580    -2.261623017020    -2.894046632637
O     -0.605731813683    -0.788302602819    -1.747060633024
H     -1.253510815954    -0.757341373320    -0.908364035593

