# STO-3G

title

0 1
C      0.946114494025     2.586868759691    -0.390629086603
C      2.071660516685     3.212390467409    -0.962999480513
C      1.929689785613     4.455357480720    -1.616816597706
C      0.667976640908     5.074363298485    -1.703583716790
C     -0.457083684802     4.443828185676    -1.136152795707
C     -0.323496519400     3.201777652394    -0.481683401441
H     -1.854224830399    -2.030621244420     2.851293426451
H      3.051293344452     2.740730685360    -0.914005453356
H      2.804397785944     4.933460462936    -2.053894001951
H      0.564589700008     6.034320016281    -2.204370586880
H     -1.435455014845     4.915920872051    -1.201327135065
H     -1.199460339284     2.714804547366    -0.058043941962
C      2.325199052313     1.507611741806     2.146055401999
H      2.924954841882     2.352860887128     1.823841080671
H      2.843349142332     0.567535398192     2.309958674052
C      1.001459154431     1.664606539185     2.591260554546
H      0.507044064555     0.818602395316     3.045003747024
C      0.325972616962     2.962857621756     2.761164431715
O      0.966296263742     4.033381621765     2.590506226271
O     -1.036933556629     2.970111891452     3.104197584001
C     -1.652509895863     4.263494357468     3.182903370700
H     -2.724001201597     4.147482190998     3.453612441148
H     -1.162448231755     4.888259290711     3.964209867633
H     -1.594546833394     4.789079888867     2.202061653107
Pd     1.040280281040     0.809499599407     0.504195093146
C      0.748176929193    -2.139360705549     1.111160136423
O      1.613136799981    -2.753204714931     0.390258635238
O      0.968894805458    -1.019243344727     1.715312490706
C     -0.679043209395    -2.745001730040     1.257885424574
H     -0.601324223737    -3.628505100177     1.904748481179
C     -1.260419361869    -3.186887989472    -0.070399016531
H     -2.290675579029    -3.568772723700     0.083385944612
H     -1.294438199709    -2.330539943391    -0.774582230678
H     -0.637605864786    -3.992459779725    -0.511461190156
N     -1.603958423003    -1.802099814217     1.897759173965
C     -1.912615475028    -0.561379628455     1.441021107114
O     -1.521789183304    -0.055734586422     0.356802325740
C     -2.793664454864     0.233239716403     2.323679301333
H     -2.987561264880     1.211759044430     1.850988858331
H     -3.733308431513    -0.328825304807     2.454333599244
H     -2.282489060862     0.373071513212     3.291983854431
N      1.099338517728    -0.066973486542    -1.451061263808
C      0.187115682685     0.368892724644    -2.377113196318
C      0.423807964429     0.175381578183    -3.723575045855
C      1.568128211606    -0.461502502849    -4.148667708762
C      2.443777786994    -0.924250424264    -3.202392878230
C      2.155048930022    -0.729265272910    -1.833593257285
H     -0.712841305406     0.878666573299    -2.055955033565
H     -0.291755686807     0.538367087764    -4.442440672727
H      1.762299180436    -0.609508968224    -5.207515351862
H      3.335173573357    -1.458352033589    -3.462989356571
O      3.022905612616    -1.279348808191    -0.998330751559
H      2.558722244743    -1.858590524696    -0.239467694622

