# STO-3G

title

0 1
C     -0.045860068963     2.101747429921    -2.292453918819
C      0.452009653364     3.365922262191    -2.679223822169
C      0.057196624681     3.936340278098    -3.908445119621
C     -0.834921053583     3.251891900232    -4.755581404356
C     -1.326235480762     1.988855128079    -4.371888351374
C     -0.929519125192     1.410380080701    -3.148198401479
H     -2.063459318484    -1.101580331396     2.108232336294
H      1.141910024477     3.914375808320    -2.039128452949
H      0.444470174732     4.911680851331    -4.196960454685
H     -1.140738597075     3.693590731208    -5.701056174534
H     -2.009738145664     1.447526310414    -5.022950621404
H     -1.298624872013     0.422073674954    -2.880449303734
C     -1.378024829790     1.862033124473     0.487385295838
H     -1.501136818324     1.170138443957     1.311588285658
H     -2.108121287062     1.770806677504    -0.310567233242
C     -0.518501568888     2.953989735884     0.542842237944
H     -0.565716917720     3.690016345898    -0.244351856301
C      0.307412166220     3.340992028607     1.700301448045
O      1.137734332730     4.274457556290     1.547318538533
O      0.222143596464     2.628930219051     2.910437343887
C      1.144924874656     3.030543530513     3.934070524886
H      0.994600949714     2.405061843842     4.839559647040
H      2.196549982728     2.894466563311     3.592635640882
H      0.983144546090     4.095565758193     4.217781592027
Pd     0.542335762779     1.248923568540    -0.579434290039
C      0.281806192583    -0.636166403694     1.653109802939
O     -0.314921459413    -1.388296624047     0.776980236972
O      1.105160034114     0.308500150409     1.359455130547
C     -0.249047290924    -0.794201987797     3.100448461200
H      0.192008165026    -0.012788895233     3.723540852842
C      0.042696825645    -2.152395300092     3.697039647787
H     -0.372381595852    -2.201981519659     4.724107099081
H     -0.447742036136    -2.935843890926     3.080689727246
H      1.136561600240    -2.332645965200     3.729544187298
N     -1.706285582716    -0.648227592336     2.950150240848
C     -2.593323055555     0.167369744996     3.583952154004
O     -3.749076874773     0.382624076318     3.147134082059
C     -2.170683219710     0.777734801437     4.862800494284
H     -3.041681621431     1.299590060619     5.297774094406
H     -1.840422355047    -0.032512762472     5.532724999569
H     -1.368243420960     1.501982929694     4.658471520968
N      1.797350328669     0.077677842616    -1.753414432582
C      2.851982370160     0.674586202673    -2.390461127272
C      3.584595917063    -0.028692058976    -3.323030196223
C      3.262918919042    -1.333028874966    -3.625314301720
C      2.207552540712    -1.910740979043    -2.971050811851
C      1.481849209509    -1.165396286112    -2.015905292784
H      3.107459545009     1.703042157636    -2.163316714564
H      4.409185277247     0.451973335361    -3.823304043675
H      3.832645642268    -1.890491510339    -4.364068655268
H      1.905409558456    -2.921476102811    -3.160786745462
O      0.493686452449    -1.816776021057    -1.462151625619
H      0.093658014332    -1.529061186829    -0.485824159601

