# STO-3G

title

0 1
C      1.662219694480     2.837651232470    -1.298831321562
C      3.054391593253     2.758702027807    -1.076489341466
C      3.914582863839     3.743726744197    -1.603723482088
C      3.394392458409     4.810267801143    -2.363466342367
C      2.007630401987     4.887947868590    -2.591653072352
C      1.141375473144     3.907530912131    -2.060601909980
H     -3.101391400616     0.380971274311     0.490172176778
H      3.472770467021     1.935944676877    -0.498822963255
H      4.985256086058     3.673545631884    -1.420797983030
H      4.060289988485     5.568361898709    -2.769211861090
H      1.596807487894     5.708152198769    -3.177234873531
H      0.072838714984     3.987784807651    -2.252784227168
C     -0.826169996565     2.835454468246     0.669207700542
H     -1.710378569177     2.291398240513     0.976123229247
H     -0.995031284413     3.652335732988    -0.025400243491
C      0.400741068867     2.718972928281     1.314337404482
H      1.192158833157     3.411629453002     1.075439558757
C      0.680381628307     1.880859098072     2.495180771441
O      1.861687773239     1.841236261547     2.926954673550
O     -0.344174834711     1.131241173228     3.102266605533
C      0.063614734712     0.310310220070     4.207593584083
H     -0.814601072449    -0.230424518113     4.617741301881
H      0.813069373180    -0.447088044903     3.880373999565
H      0.498891063603     0.931184479190     5.023571527235
Pd     0.414480581188     1.424466315586    -0.621518415029
C     -1.018165399461    -0.847193832787     0.886846086250
O      0.082013042743    -1.383143262891     1.283815148065
O     -1.108925815171    -0.002932552108    -0.087479589929
C     -2.339202321796    -1.152972302570     1.640701378427
H     -2.079390119215    -1.314822362141     2.690319517154
C     -3.033542392580    -2.385550993666     1.109258974876
H     -3.955564380252    -2.570816418776     1.697462494318
H     -3.319629569284    -2.216140832510     0.050095213077
H     -2.364885619801    -3.268109781225     1.181559760049
N     -3.222501274024     0.001625470370     1.432139172709
C     -3.598486657745     0.957531209406     2.329811798786
O     -3.803519758380     2.152667842389     1.996418322913
C     -3.852519956962     0.555303188572     3.730286122288
H     -3.049258926521     0.987054507060     4.348934108375
H     -4.824764564349     0.991169606118     4.016941798671
H     -3.907066944225    -0.541138221257     3.821435100681
N      1.330627311341     0.108543676036    -1.950150962178
C      1.408783508249     0.443055651554    -3.276383497770
C      2.195098884988    -0.297730667262    -4.132707658117
C      2.907901065002    -1.378902402432    -3.667621703320
C      2.805091991758    -1.703071846917    -2.341399798243
C      1.981748842957    -0.931799343400    -1.489872269879
H      0.855611465542     1.295787123409    -3.652352097358
H      2.254844367564    -0.019797108701    -5.172133614428
H      3.533969798425    -1.962929195217    -4.336963406082
H      3.331135174528    -2.536114803304    -1.919458445939
O      1.968709167316    -1.348467279829    -0.251958903816
H      1.137781100323    -1.243777508569     0.449185167867

