# STO-3G

title

0 1
C      0.512422687331     2.723066121008    -1.323939043641
C      1.237439416174     3.906321513771    -1.063041607562
C      1.094730114625     5.025853930428    -1.911350118491
C      0.231120187215     4.973207995271    -3.021408073862
C     -0.487201159614     3.790705616315    -3.286231276852
C     -0.344189662425     2.667730416136    -2.445982938809
H      0.695526869890    -0.352963659309     3.164763672445
H      1.910146593443     3.974421152473    -0.210465627059
H      1.655306597115     5.934030982584    -1.698720559949
H      0.121732900379     5.837588768909    -3.672088682545
H     -1.153082370346     3.734763039768    -4.145221733300
H     -0.897794941077     1.757951798881    -2.673112908028
C      0.257026510968     2.220804014524     1.767591852631
H      0.584940517071     3.249106819064     1.665044532402
H      0.837100715900     1.595206130900     2.437408634548
C     -0.977382693980     1.797211826689     1.281867189181
H     -1.342034576865     0.809032582154     1.525930269637
C     -1.972875068546     2.684174339899     0.656367236954
O     -3.018557458440     2.173667930503     0.177269148206
O     -1.707223493502     4.059838287063     0.543236711503
C     -2.647536312630     4.819161625820    -0.228205016979
H     -2.325423188835     5.882108679424    -0.256028822031
H     -2.689490714713     4.445621733143    -1.276472898451
H     -3.663402355620     4.771894884493     0.225335655832
Pd     0.691411339872     1.106704344192    -0.159048063896
C      0.055363460421    -1.588717489340     1.294013352794
O     -0.527882368410    -2.128140430445     0.284077784287
O      0.831830331922    -0.559102874339     1.223100481428
C     -0.212791944061    -2.154118173606     2.716859046056
H      0.264499781590    -3.143530393399     2.771315252160
C     -1.699514878813    -2.298753957394     2.984149358219
H     -1.871789513218    -2.733836842234     3.987721115928
H     -2.179263189235    -1.298931067341     2.949142243706
H     -2.167010853402    -2.960077694106     2.224923023579
N      0.350065276451    -1.180331835155     3.649995522091
C      0.615296292502    -1.175515894287     4.981548169138
O      1.062545945561    -0.153877245621     5.559928474560
C      0.392789003587    -2.404626392211     5.776037429020
H      1.332036487477    -2.615334136326     6.315311981569
H     -0.412603295471    -2.185637972807     6.496182885817
H      0.131993141638    -3.261107498095     5.138247314746
N      1.669112167546     0.191965171891    -1.752081320812
C      2.781110523303     0.809799980890    -2.261010171392
C      3.348706460231     0.360609956177    -3.433967795551
C      2.806883673426    -0.710029974168    -4.107047349197
C      1.702572040261    -1.319921276657    -3.575564744388
C      1.149223125597    -0.845094337275    -2.364445264513
H      3.213494978935     1.657318318407    -1.742140306587
H      4.218804924600     0.859752460324    -3.827714770124
H      3.246370342908    -1.064580464546    -5.035612375442
H      1.236568532559    -2.160630748550    -4.049716706457
O      0.102733932713    -1.511339960290    -1.965535446395
H     -0.203150788956    -1.690192158903    -0.919863520666

