# STO-3G

title

0 1
C      1.533244624664     3.366951705062    -0.459195068353
C      2.910924950167     3.103397659578    -0.300522152815
C      3.859796098214     4.109999342798    -0.577524777168
C      3.443963376395     5.380736801611    -1.021108771323
C      2.070306465442     5.642586491043    -1.186329276111
C      1.116210806115     4.641837052252    -0.903745197946
H     -1.547853636565    -1.103863116410     2.204261439601
H      3.244349132900     2.120174237187     0.024129646491
H      4.919868006183     3.896200085864    -0.452383606276
H      4.178635080237     6.153555756983    -1.236035775879
H      1.738299878888     6.620409068779    -1.530710768948
H      0.058142794561     4.864877044549    -1.037769472947
C      0.322406879298     2.159608283625     2.052749272036
H      0.044549468503     1.167721255914     2.397545242844
H      1.363027853776     2.438483348210     2.175193754870
C     -0.647049417220     3.091941204154     1.665073175759
H     -0.342608153788     4.102923382459     1.439575071053
C     -2.098948576817     2.890765499224     1.816077539953
O     -2.874123065710     3.762857223858     1.343111083569
O     -2.578687321521     1.843384053169     2.621766056645
C     -3.998470994009     1.646148185042     2.608546117438
H     -4.254511115835     0.784308424062     3.261298055192
H     -4.528813434326     2.546409018900     2.993455596419
H     -4.352616286505     1.415715137760     1.577945902095
Pd     0.143629481525     1.965027277180    -0.137567118409
C     -1.501184960882    -0.564905733767    -0.503427831241
O     -1.747552242523    -0.613510541713    -1.735661227110
O     -1.390655682799     0.518326908963     0.239953863508
C     -1.238386374336    -1.902721495803     0.284491250863
H     -0.408924413496    -2.420034574668    -0.208620106578
C     -2.443142951918    -2.816703772899     0.294192762947
H     -2.193026444318    -3.755431064834     0.830124272758
H     -3.280852114033    -2.315057907303     0.819495639426
H     -2.747820705865    -3.058397994994    -0.745205417720
N     -0.866282078057    -1.641195449745     1.678077234528
C      0.387775405914    -1.754263183149     2.136969383034
O      1.394983627017    -2.078740184308     1.431658655809
C      0.614655383665    -1.501130226210     3.574966380745
H      1.021476963092    -2.428246451339     4.012523776439
H      1.349236570422    -0.684534982786     3.662811644215
H     -0.329092597733    -1.229497025996     4.081435150410
N      0.926836259440     0.822087577474    -1.728509388371
C      0.531791200380     0.901670300891    -3.036657805632
C      0.961735268295    -0.049649217221    -3.942194644429
C      1.765176756101    -1.092515215245    -3.533304476033
C      2.144093311201    -1.146495915127    -2.215539035320
C      1.693698886421    -0.139087884672    -1.333347985853
H     -0.115493511192     1.709359947108    -3.357602195457
H      0.638915698397     0.014117943198    -4.967915005076
H      2.094043937020    -1.850125715455    -4.239508242266
H      2.781661531492    -1.921446701995    -1.841299478780
O      2.097351574713    -0.199664681534    -0.062545331536
H      1.957318569726    -1.076314828752     0.449752728176

