# STO-3G

title

0 1
C      1.050965753203     2.701734028188    -0.738718290031
C      1.952677225655     3.504836296106    -0.004448264208
C      2.308659677105     4.785158925264    -0.479013548883
C      1.771023428042     5.269767395065    -1.686714952737
C      0.877871858219     4.465886416608    -2.421386004263
C      0.521418109298     3.183444933577    -1.953747320953
H     -3.109986595611    -1.289862274529     1.259409740288
H      2.371509618615     3.154032376238     0.938337011739
H      2.999799464329     5.398134462994     0.096067575900
H      2.043683601438     6.257338099706    -2.051274958364
H      0.460851273007     4.828628742240    -3.358889382923
H     -0.153918365530     2.568009050483    -2.545345282168
C     -1.473596854573     1.443288307190     0.415713669196
H     -1.751749231673     2.301425567404    -0.186619299057
H     -1.933037051732     0.501700071239     0.130742977897
C     -0.776368643187     1.574174334133     1.614597440335
H     -0.648263802920     0.712057459761     2.248919716928
C     -0.433460108487     2.861800161955     2.238410637644
O      0.371371405409     2.858741409248     3.207050959074
O     -0.830985717140     4.060863599317     1.622092999989
C     -0.375530820350     5.270343450222     2.242900924852
H     -0.755387225567     6.141868924788     1.667510876948
H     -0.756864448229     5.347265258785     3.286277634149
H      0.736585456176     5.318450312214     2.247318860988
Pd     0.655848844178     0.865492490587    -0.058974033608
C     -0.672674813454    -1.792303485753     0.462850158733
O     -1.189437136680    -1.681233378145    -0.721042590396
O      0.342041855460    -1.107975148179     0.873600327032
C     -1.465399490829    -2.588368912502     1.529427952306
H     -0.780180756672    -2.869854887423     2.332535836637
C     -2.153537247633    -3.824169942883     0.996831768827
H     -2.705788105870    -4.321698893385     1.820322243912
H     -2.881115346740    -3.535364480832     0.209237304276
H     -1.408104303257    -4.527189601338     0.572507531914
N     -2.492926798437    -1.641460225237     1.990292480033
C     -2.573859718341    -0.923743534127     3.148960306722
O     -3.325510192917     0.070246538264     3.277876747436
C     -1.741335979575    -1.362872881174     4.290486653946
H     -0.679734786340    -1.229964348782     4.026922763674
H     -1.991180881294    -0.727266098883     5.159064446107
H     -1.984937757996    -2.415939940813     4.513119572710
N      1.925992870576     0.155479216133    -1.554758284398
C      3.234800043975     0.555807933218    -1.601515983903
C      4.009922505838     0.258782082510    -2.702367569851
C      3.478282640390    -0.437290859998    -3.764368828208
C      2.168988947432    -0.832400397225    -3.692521412693
C      1.403516892868    -0.520732909689    -2.546911586513
H      3.660490246386     1.109107816429    -0.772617877224
H      5.036921965309     0.583979011224    -2.731672307057
H      4.082623399984    -0.668147447766    -4.637634637617
H      1.696358921372    -1.376473592859    -4.485994682765
O      0.166845576356    -0.944574826260    -2.603189286950
H     -0.440924153412    -1.156798031413    -1.725816149407

