# STO-3G

title

0 1
C      1.924481133163     3.264008529892    -0.815034576933
C      3.319803563854     3.483618416860    -0.844233584393
C      3.846307941832     4.610069593152    -1.512251227060
C      2.987243793339     5.524805806228    -2.150424999485
C      1.595653005188     5.308272754407    -2.120968529367
C      1.064424681004     4.181971062263    -1.458611003798
H     -1.264489139392    -2.199983252979     0.385476702200
H      4.003392399588     2.784914372516    -0.364828655532
H      4.922717543896     4.769924579963    -1.529454340209
H      3.394569376882     6.394866299582    -2.660269669976
H      0.922703694486     6.011368240024    -2.608505127264
H     -0.013866614581     4.027787704977    -1.448548301278
C      1.956481802056     2.252973172444     2.074319126707
H      1.992674374288     1.317548312425     2.625022764969
H      2.907454776548     2.703756088644     1.811686421029
C      0.774852980014     2.970666366543     1.877856318286
H      0.812045272874     3.949695067183     1.424492716179
C     -0.526652045472     2.632974313230     2.481188830637
O     -1.527490253324     3.328104428638     2.167059486876
O     -0.629473779517     1.552984974074     3.371296734890
C     -1.926354327288     1.334372364288     3.944139310621
H     -1.897550326738     0.431550710250     4.593062941644
H     -2.237776501242     2.202953131890     4.565923338413
H     -2.687935709066     1.155557203178     3.151866658989
Pd     1.173568801258     1.631534486059     0.064589644720
C      0.689251805494    -0.931657878281     1.947027316651
O      1.773470113121    -0.795878265585     2.554221921623
O      0.270340450745    -0.090619401821     0.987062754228
C     -0.299770898352    -2.087506053142     2.271290668970
H     -0.670692569247    -1.915373786574     3.288782517495
C      0.367875388280    -3.444080703823     2.218030392734
H     -0.362651513140    -4.225020503682     2.514612682962
H      0.706868804142    -3.648517324837     1.182607025848
H      1.234317452538    -3.475860588962     2.910785925050
N     -1.450018354205    -2.107193267089     1.377619100668
C     -2.682415943647    -1.719010793632     1.813623285441
O     -2.952100844437    -1.430386365917     3.003581795409
C     -3.760064021147    -1.642582089302     0.802909693127
H     -4.562823037211    -2.327125697122     1.121940471875
H     -4.121673721139    -0.601777654313     0.788309890002
H     -3.386540244010    -1.926292081530    -0.196819011171
N      0.744118628279     0.774428775804    -1.851871128807
C      1.467334999646     1.112596830141    -2.969120772781
C      1.035679832769     0.729009653931    -4.221976540792
C     -0.118256175432    -0.004808987039    -4.372124545564
C     -0.811919392754    -0.356025251182    -3.246742907468
C     -0.337713896562     0.045104932871    -1.979158759823
H      2.387792555721     1.674520158178    -2.878067095668
H      1.611342616531     1.008784761838    -5.089305676621
H     -0.462376481470    -0.308678164921    -5.357289084872
H     -1.706111922747    -0.945589362488    -3.290327189783
O     -1.065738601355    -0.383390656039    -0.972810974552
H     -0.593929471048    -0.272447626956     0.013301016279

