# STO-3G

title

0 1
C      1.499294023912     2.809815444780    -0.484303219792
C      2.576554412734     2.254703835558     0.240160170946
C      3.748369442234     3.010355026327     0.450572804459
C      3.856641644351     4.318538904574    -0.061141620686
C      2.783342783465     4.870224673802    -0.785814492298
C      1.605061815082     4.121458449663    -0.995824617058
H     -3.166226398868    -0.729989916796     1.641647139115
H      2.501742152775     1.246410059596     0.639948169296
H      4.572503591044     2.572903116654     1.011416011550
H      4.762637421540     4.897895285703     0.101785102518
H      2.854896821688     5.880572528126    -1.184159129341
H      0.784463393832     4.569449891755    -1.553360791830
C     -1.577368698355     3.162003949275     0.131127843720
H     -1.218970671645     4.179066295218     0.012774998784
H     -2.476117070247     2.861072912712    -0.398596223698
C     -1.094974574978     2.335868915181     1.148652729024
H     -1.591413240838     1.393714611435     1.336113992440
C     -0.144238138146     2.750250483846     2.194322689907
O      0.169658782940     1.923913123917     3.091424269937
O      0.351836532484     4.065827794453     2.200523013050
C      1.365758448591     4.347561086830     3.174172320656
H      1.691112580504     5.404587253570     3.069229711800
H      0.975960640569     4.200902353585     4.206827047709
H      2.255165602339     3.696481886788     3.015607146599
Pd    -0.148236397267     1.751562726670    -0.873444305551
C     -2.669477625849     0.123429565850    -0.658448533864
O     -3.592831918541     0.727789340354    -0.023497297769
O     -1.900816827091     0.620362857781    -1.590240328191
C     -2.339540683028    -1.333512671914    -0.171917764793
H     -1.350803284301    -1.632515244464    -0.515307457205
C     -3.361560234148    -2.350102425744    -0.627015677634
H     -3.086838727419    -3.351345008832    -0.236037863358
H     -4.358706758839    -2.070972317146    -0.226341254892
H     -3.400457414058    -2.383393642738    -1.734910697433
N     -2.378319407475    -1.278978160836     1.296562099196
C     -1.379369752367    -1.662565582306     2.095442744081
O     -0.272611831412    -2.159760095677     1.706482319441
C     -1.597488440520    -1.472822614581     3.539738764030
H     -0.713044787113    -1.840212741742     4.088933557238
H     -1.733706896994    -0.392021551959     3.718948964386
H     -2.501409112699    -2.035431093507     3.830315287454
N      0.994826341816     0.277738677432    -1.853522076581
C      1.263704302999     0.217381633226    -3.192786229574
C      1.732804498018    -0.958956016284    -3.745722689262
C      1.941776374971    -2.070783237519    -2.955876250709
C      1.675071805486    -1.976782735994    -1.613296846542
C      1.199341272639    -0.751336872225    -1.095143013360
H      1.097265975686     1.087410389676    -3.817205916765
H      1.937665487086    -1.002711682095    -4.802916421465
H      2.315233890346    -2.996405867646    -3.386158493891
H      1.837247830015    -2.798319902296    -0.944179275499
O      0.974880363761    -0.663628740299     0.207182161764
H      0.563385939388    -1.437749983603     0.765296913536

