# STO-3G

title

0 1
C      0.389892501492     2.767075357073    -0.775116657569
C      1.180084821088     3.800999823722    -0.230278602919
C      1.698452054120     4.808979336140    -1.071871698697
C      1.430999984813     4.790994210347    -2.453761692166
C      0.646108393633     3.754801623922    -2.996900518509
C      0.130454958952     2.741594483100    -2.163066986993
H      0.425343962736    -0.142757574261     3.520503984541
H      1.401468510313     3.833589707262     0.834186693951
H      2.303419256137     5.605795621333    -0.643841160657
H      1.827808670582     5.572325523683    -3.097640493744
H      0.438495832800     3.728432462259    -4.064686235813
H     -0.462369976608     1.939054508182    -2.598771251212
C     -1.373725465723     2.669394510509     1.822030336075
H     -0.835430673637     3.609143545540     1.893293785278
H     -1.317786487222     1.996420245551     2.670550826738
C     -2.290468987852     2.422467565357     0.797189215557
H     -2.892258274930     1.525087471112     0.833972831277
C     -2.681015768542     3.407730361445    -0.227751202808
O     -2.270802247746     4.595462926977    -0.147179943403
O     -3.483109658586     2.979214017423    -1.298022232374
C     -3.732723205508     3.955588706977    -2.319177706349
H     -4.365902964699     3.505325545016    -3.113760499651
H     -4.271776098339     4.836517830099    -1.902052754060
H     -2.777975826366     4.293829204314    -2.783970560813
Pd    -0.353122943977     1.307313644761     0.368519779549
C     -1.047954107374    -1.423098962281     1.722473668049
O     -1.206422202701    -2.170851958781     0.694420645878
O     -1.248243292329    -0.141948454218     1.745998360283
C     -0.384669681878    -2.006927916903     3.002700051683
H     -0.042966322272    -3.023949313267     2.793132116217
C     -1.307773671105    -2.038540299522     4.199146232645
H     -0.757902412948    -2.437789530510     5.076357105910
H     -1.650605878148    -1.009984951680     4.435557408617
H     -2.185241751254    -2.684002933818     3.989455914798
N      0.730501027248    -1.091543138807     3.302783363759
C      1.959184775352    -1.083831522155     2.705510685479
O      2.645892350581    -0.039355191312     2.581175518743
C      2.500118015775    -2.371059645543     2.218125926607
H      3.532561094076    -2.199462084487     1.864360436678
H      2.501370928516    -3.080303148726     3.062372218943
H      1.877661093132    -2.725265090664     1.378892396384
N      1.101090459146     0.069766982509    -0.512015348816
C      2.414878432029     0.448075709868    -0.400010913906
C      3.372749905723    -0.147158969183    -1.195250611179
C      3.022745771748    -1.115161105735    -2.108652509870
C      1.706657427514    -1.487208975228    -2.189137840653
C      0.755389996241    -0.873299814420    -1.345123114881
H      2.697900210260     1.226905663843     0.298398104550
H      4.400050794065     0.164965552902    -1.102261573305
H      3.773043331677    -1.577485746765    -2.744428293210
H      1.369625157654    -2.241889458031    -2.871033838709
O     -0.476302598310    -1.327210229232    -1.477490142102
H     -0.976301926119    -1.592445286565    -0.569478442925

