# STO-3G

title

0 1
C      0.925950038254     2.743413652766    -0.728287990052
C      1.835357890544     3.567157726430    -0.024346303188
C      2.183278166116     4.838627721217    -0.527712631597
C      1.628254309216     5.299937091546    -1.736771913343
C      0.726384677002     4.479782732929    -2.442255312358
C      0.379954450492     3.205798232312    -1.944909673204
H     -0.521932386005    -3.045919818886     3.222938531039
H      2.266104868306     3.238059633868     0.921122808372
H      2.881526574396     5.463756157711     0.025930412016
H      1.894911982522     6.280284121041    -2.124994444268
H      0.295802553538     4.822888229691    -3.381191589093
H     -0.301632283855     2.578321339702    -2.516620554852
C     -1.634090803107     1.390945529030     0.421766478349
H     -1.955931426644     2.158711329684    -0.274948573508
H     -2.057806121350     0.400960283247     0.291689976974
C     -0.927608411845     1.690653089545     1.584771407699
H     -0.761016461028     0.900255496914     2.299638426450
C     -0.650866395904     3.054336427409     2.064063978176
O      0.104019339616     3.200469447273     3.061165057508
O     -1.146164628366     4.159104345519     1.349765564658
C     -0.754565239805     5.450253703350     1.835093470220
H     -1.199560069722     6.235302291172     1.186682743192
H     -1.116689650481     5.608777150124     2.875986149270
H      0.352217867521     5.565319739197     1.804171035573
Pd     0.525612831483     0.914154974506    -0.026247096728
C     -0.647472193030    -1.854863598072     0.326212040660
O     -1.040373831592    -1.781503210975    -0.900761600524
O      0.173393466267    -1.025066610286     0.877412016556
C     -1.145749630105    -3.027460533007     1.209231055650
H     -0.390965428199    -3.821854585543     1.127073391499
C     -2.480563452587    -3.597130562113     0.771359017675
H     -2.785016222087    -4.405573056079     1.467564267070
H     -3.254930702420    -2.803420326292     0.782246495083
H     -2.402136414455    -4.013058653572    -0.254217292220
N     -1.223827497441    -2.641296642238     2.619484162787
C     -1.950183419247    -1.572974460085     3.043492241757
O     -2.638901202966    -0.842467357261     2.290883093301
C     -1.916490647373    -1.268236088709     4.491944792970
H     -1.307499638711    -2.011293868476     5.034081919311
H     -1.488967155631    -0.259423010286     4.610014099970
H     -2.955616369968    -1.289592046148     4.862405863242
N      1.960379218518     0.224868660980    -1.384586007033
C      3.263548075514     0.630499152206    -1.275450697798
C      4.148060665654     0.402212657317    -2.308487614232
C      3.732447017398    -0.232307414689    -3.457473777700
C      2.427111283063    -0.638339234958    -3.540334206289
C      1.548588158910    -0.398659481083    -2.460339462889
H      3.598311672916     1.135601901664    -0.377093427610
H      5.169696220246     0.731798165748    -2.214887924375
H      4.423716018237    -0.409126670207    -4.277210507308
H      2.042136089015    -1.140001957946    -4.405609959965
O      0.328868709899    -0.829227360503    -2.653902723721
H     -0.321032775750    -1.135113967305    -1.822485044720

