# STO-3G

title

0 1
C      1.213842365397     2.453907920324    -0.238746367661
C      2.012362286854     2.091068337379     0.868388662230
C      3.104455202600     2.899568317099     1.246514534366
C      3.406646415005     4.069387748979     0.523091572637
C      2.610202740320     4.429232159079    -0.580326344434
C      1.515308380557     3.625551838954    -0.964358430556
H     -1.032227090431    -0.203792551677     1.225445650176
H      1.795062430423     1.193160469303     1.444318991271
H      3.710835473444     2.613740731903     2.103838928846
H      4.249057055229     4.691456095648     0.815870608329
H      2.834160765447     5.332380201534    -1.144415079061
H      0.917689822212     3.919165732571    -1.825072051014
C     -1.861175900711     2.874486883672    -0.589769830209
H     -1.429532153194     3.800581970304    -0.954312540465
H     -2.618306715333     2.391957376949    -1.200975675389
C     -1.663587869717     2.443495990154     0.722510011566
H     -2.264076180608     1.626700863347     1.096126000510
C     -0.976830120909     3.223589840853     1.766926000858
O     -0.790004916991     2.694073611552     2.893251764465
O     -0.510124741712     4.517471273487     1.475292561249
C      0.240251779700     5.161600790911     2.513668115326
H      0.562789842394     6.165868785881     2.164868546016
H     -0.380111894347     5.291197708501     3.429335579398
H      1.152623231183     4.574157937888     2.763083799858
Pd    -0.302083631081     1.272247629001    -0.791232353203
C     -3.086572615056    -0.164116202706    -0.378304158191
O     -4.105562038764     0.551416504995    -0.344734715235
O     -2.094484200670     0.024764226323    -1.284647841142
C     -2.779726852684    -1.294567853930     0.650427264977
H     -2.847730664392    -2.269160242042     0.147929591975
C     -3.710543099577    -1.290234811434     1.842073665419
H     -3.456808231519    -2.137994899121     2.512180604780
H     -3.590958001769    -0.342064432353     2.404196611700
H     -4.763326608697    -1.394938202374     1.507502277525
N     -1.402100045626    -1.144169823804     1.132282830280
C     -0.587250353213    -2.223074922343     1.307162768846
O     -0.942576014378    -3.412506599806     1.168373872002
C      0.800941614402    -1.906508455127     1.707676532369
H      1.264679640069    -1.314851802807     0.902698062514
H      0.756791900265    -1.338187472849     2.651989165199
H      1.351642908873    -2.853578607433     1.852554387295
N      1.068048349256    -0.101625335479    -1.736044641131
C      2.392306011771     0.206066396016    -1.950779643531
C      3.270261700435    -0.747758480954    -2.420578791368
C      2.841160808076    -2.021641740860    -2.701406208881
C      1.518198895716    -2.307839714208    -2.524653980572
C      0.637237526446    -1.311737821127    -2.050616801023
H      2.773604977833     1.199204462453    -1.767279008587
H      4.305322241239    -0.486200812472    -2.571066475285
H      3.531669434474    -2.776450635163    -3.068785672466
H      1.114859118002    -3.278533689317    -2.740653320182
O     -0.595006180626    -1.712033055400    -1.963441080076
H     -1.343907379846    -0.979928433366    -1.640973151244

