# STO-3G

title

0 1
C      0.102553955138     2.444284608822    -2.154188053641
C      0.855929495825     3.570465175662    -2.557530980374
C      0.533428137082     4.253974340039    -3.749459164815
C     -0.543266487981     3.822054826879    -4.547074918156
C     -1.292800331894     2.697473255220    -4.149862800092
C     -0.969160844261     2.007076222684    -2.963257066117
H     -1.505793462948    -2.148405749010     3.467421480392
H      1.692039742034     3.924827859491    -1.955723516882
H      1.120439357427     5.120693190435    -4.048124356414
H     -0.793295990621     4.350570007956    -5.464210710694
H     -2.122341723970     2.349779439228    -4.762762134461
H     -1.544016655312     1.125138541573    -2.685582530370
C     -1.053610019979     2.435482485584     0.718503114633
H     -1.301526718608     1.782915066366     1.550794601102
H     -1.817067906372     2.538325851277    -0.047638531494
C      0.046477685208     3.288371572914     0.726755476544
H      0.137969242748     4.033784803449    -0.048081056191
C      0.991938375671     3.444407695118     1.846991369623
O      2.008246699460     4.166076728967     1.668345786924
O      0.782051812292     2.761155614852     3.056017735494
C      1.776067358392     2.955095068709     4.071053257733
H      1.492081853793     2.377098693885     4.976897585789
H      2.770350899492     2.593549107133     3.723978655398
H      1.847758424375     4.029495793998     4.354845400758
Pd     0.594728180044     1.427032190545    -0.499883941570
C      0.194276658618    -0.444086213266     1.755072309628
O     -0.631822817348    -1.071897063922     0.981466705803
O      1.098559197769     0.379462166869     1.350687819560
C      0.004640727000    -0.658514908872     3.278212043252
H      0.132638118902     0.314964234851     3.758490514566
C      1.010669597767    -1.627373368604     3.860160285930
H      0.839062906931    -1.723646227701     4.952207953374
H      0.881674954706    -2.623143855951     3.388689616715
H      2.042564737856    -1.260626531026     3.682573145596
N     -1.338183580976    -1.154348546413     3.556738204764
C     -2.393012640478    -0.307498616267     3.416612832012
O     -2.290499359237     0.914164188894     3.150805811233
C     -3.729067044499    -0.908523260733     3.600378490895
H     -4.491699835985    -0.119239512895     3.483656753919
H     -3.853766113962    -1.687601012390     2.829977833941
H     -3.770410930775    -1.346140736864     4.612533352676
N      1.409909551602     0.004614781350    -1.786320591201
C      2.504885093470     0.345707287497    -2.534100990479
C      2.931948661535    -0.480562382402    -3.551983591116
C      2.263973521507    -1.652643535559    -3.827578042329
C      1.175675938898    -1.976362842108    -3.061772459699
C      0.768577267724    -1.112274227192    -2.021122610254
H      3.032270057193     1.269847572140    -2.328081460794
H      3.791358883166    -0.200045613784    -4.138452970237
H      2.593177099988    -2.305567813271    -4.631544064607
H      0.614272708336    -2.875017978727    -3.222628967239
O     -0.281464952949    -1.521602340677    -1.359302995496
H     -0.465587974584    -1.200756123881    -0.317566320252

