# STO-3G

title

0 1
C      1.872447805582     2.402856741073    -0.203561746246
C      2.912744117259     1.449870936831    -0.274720409407
C      4.170658255018     1.808753259899    -0.801185043727
C      4.401309000687     3.118025177296    -1.266712962492
C      3.365119682749     4.068638266576    -1.201544405852
C      2.106079621028     3.715645193692    -0.669844857146
H     -3.152850619277    -2.173701377060     0.848697349193
H      2.755310309749     0.432047572632     0.078465357315
H      4.962618472617     1.063488866619    -0.847481482854
H      5.371666150598     3.391683127823    -1.674436890983
H      3.531803577171     5.083356902620    -1.557900447355
H      1.322417542511     4.469909103280    -0.623443762327
C      0.002074437108     3.463121787864     2.143580137567
H      0.545801851531     4.356522542229     1.854159700789
H     -1.079742456218     3.527933219210     2.195251076601
C      0.659370328358     2.349113956785     2.674250181608
H      0.087798076173     1.519025409200     3.071787426649
C      2.107579428060     2.298663512245     2.945711545891
O      2.605773024357     1.230446301888     3.384509917675
O      2.903070800920     3.427064929801     2.680170818830
C      4.318578125396     3.240696459097     2.814552193319
H      4.839550584891     4.189961215982     2.565958098486
H      4.584809238744     2.956924245507     3.857919764306
H      4.680877393321     2.456043961594     2.112117545732
Pd     0.062148694788     1.936420301786     0.511848225379
C     -2.218234688246     0.396056659514     1.529852960366
O     -1.311140948180    -0.435162772270     1.938405364698
O     -1.976561839021     1.613001490879     1.179390500254
C     -3.642990263547    -0.155759714996     1.280477407893
H     -4.218721570631     0.609879197887     0.756323010189
C     -4.360312358289    -0.581542395290     2.541549064746
H     -5.358180474730    -0.987746533435     2.276346349270
H     -3.775618431626    -1.374902481929     3.051879717420
H     -4.484911429392     0.285388654050     3.221634013511
N     -3.489115112643    -1.323216945937     0.409504611745
C     -3.272010704847    -1.149798752955    -0.928469327115
O     -3.322772007432    -0.048271649587    -1.525749263640
C     -2.992623313061    -2.386971578976    -1.687476190698
H     -3.861507883613    -3.055551481161    -1.569918416530
H     -2.840788041312    -2.119698289292    -2.747284502295
H     -2.082340153852    -2.850460401560    -1.270073894919
N     -0.087472009401     0.535644221469    -1.047651740146
C     -0.340412779412     0.963318046238    -2.323339000197
C     -0.135356816975     0.110253352172    -3.389438912761
C      0.300028947239    -1.179197219096    -3.179187683017
C      0.502147597029    -1.594852510826    -1.889268431611
C      0.267066246375    -0.696784765980    -0.826298147527
H     -0.669102118560     1.981347572667    -2.495919261545
H     -0.324849753583     0.460433938919    -4.390389804775
H      0.464001426671    -1.854447367278    -4.014529010579
H      0.818976332272    -2.590786441481    -1.653099550785
O      0.444587936864    -1.214760444509     0.377095498576
H     -0.149523790068    -0.801109267188     1.139764570274

