# STO-3G

title

0 1
C      1.873416167485     2.986303302341    -1.236760335336
C      3.242360700403     3.324570743144    -1.148261464598
C      3.844654644045     4.122327644662    -2.145476376094
C      3.085287072764     4.591693353199    -3.234379524612
C      1.719052005184     4.257617981685    -3.323117430968
C      1.115258521717     3.457338545217    -2.331181079109
H     -0.746569078359    -1.468446511081     3.982951639452
H      3.847192594217     2.967252038872    -0.315959802120
H      4.900662046063     4.375437980843    -2.068182995293
H      3.548586583368     5.209221775107    -4.000866588781
H      1.122199216175     4.616982438471    -4.159913490069
H      0.059703575427     3.202809365798    -2.414703337131
C      1.186752266670     3.077728672174     1.950091213398
H      0.875231739590     2.392868264117     2.732051845351
H      2.213279558707     3.428981267719     1.981937507550
C      0.266401097964     3.664256829834     1.075741134214
H      0.598776167550     4.431594573794     0.394710193412
C     -1.199173893834     3.520036452937     1.149673212420
O     -1.898774784601     4.121002791721     0.292920054268
O     -1.789580676437     2.864859149117     2.244818702335
C     -3.223029317401     2.804573538758     2.228322645977
H     -3.584394855646     2.316629254935     3.156957722698
H     -3.664827701500     3.826445216127     2.189091575877
H     -3.579626733437     2.211974411547     1.354591820476
Pd     1.105996320260     1.768823419445     0.155260319675
C      1.106120189292    -0.798097155767     1.578412583177
O      2.232646528708    -1.008380486514     1.040796760777
O      0.464744429219     0.344851263375     1.616059866511
C      0.361305231121    -1.980774891756     2.279774079254
H      1.048908793265    -2.382987715454     3.034126152728
C      0.025810123250    -3.106554888169     1.321043811855
H     -0.496858027729    -3.917272441551     1.869155878146
H     -0.632205565868    -2.738838115408     0.510236413710
H      0.956015718361    -3.512367551351     0.871843913508
N     -0.856600780523    -1.555489885516     2.980018909716
C     -1.965791536211    -1.027426621008     2.431123657163
O     -2.217768596487    -0.904775448152     1.201498224147
C     -3.005940143392    -0.609362789974     3.394041045582
H     -2.575307049141     0.186561580593     4.025082875756
H     -3.882142675886    -0.239514619340     2.835240974555
H     -3.281776499326    -1.487107710552     4.004021855115
N      0.913216676007     0.289909147571    -1.308425532116
C      1.963532959413    -0.274114299533    -1.980766674641
C      1.755160617029    -1.396964898189    -2.758875362631
C      0.498344128745    -1.954471038348    -2.859978848055
C     -0.533961807530    -1.362953271219    -2.177619578107
C     -0.274291733955    -0.212006529278    -1.398949379937
H      2.954386080998     0.156708691901    -1.896152918548
H      2.587075709382    -1.839969625324    -3.280386823234
H      0.329378230940    -2.838046479203    -3.469487128026
H     -1.537605350723    -1.733983802677    -2.226794551283
O     -1.308083649825     0.344924799456    -0.768925066248
H     -1.710310286096    -0.180535590427     0.017160914052

