# STO-3G

title

0 1
C      1.754029429706     2.610796556775    -0.574906434736
C      2.423994186962     2.956274840170     0.618215465480
C      3.608055652185     3.721190525014     0.560651820464
C      4.129644890518     4.141122367235    -0.678693334662
C      3.463114488704     3.788494866099    -1.867678309549
C      2.277705213573     3.024369741018    -1.818662466546
H     -1.954696415752    -0.650550229643     2.950019655306
H      2.043353893241     2.610926304312     1.575415926292
H      4.120349157024     3.984754886079     1.484354938477
H      5.041380224450     4.733150746880    -0.717722134367
H      3.859818564427     4.103189226204    -2.831366722934
H      1.781092492714     2.748608645545    -2.747648785832
C     -1.147654149995     3.143612195745    -1.176333505455
H     -2.005961538103     2.648376620610    -1.622260495244
H     -0.498859314927     3.706464799811    -1.837763060208
C     -1.029661417323     3.272238699016     0.218918666672
H     -0.241630089108     3.886444596596     0.628232890165
C     -2.092101777227     2.922860818316     1.177811018985
O     -1.877098779767     3.104051585398     2.404768399548
O     -3.333869297976     2.472344790732     0.708094296354
C     -4.242799206713     1.986069785597     1.705187582985
H     -5.161980268558     1.607978720294     1.207266734518
H     -3.794622904658     1.135158707218     2.267742346265
H     -4.529047416561     2.795423917622     2.413215466666
Pd     0.107617901523     1.472754070794    -0.506250398506
C     -2.271083668473    -0.577728112150     0.129799762857
O     -3.494577506365    -0.784271464830     0.280635607483
O     -1.741776442245     0.288989231879    -0.746292205584
C     -1.222113046643    -1.285243811667     1.052103636305
H     -0.233768678443    -1.224561130586     0.591569433890
C     -1.562489940509    -2.731927600894     1.334543997518
H     -0.788884084287    -3.173482033883     1.995970554522
H     -2.546517644023    -2.787661988079     1.845263726623
H     -1.607056201423    -3.305484101401     0.386244967466
N     -1.152852245918    -0.575017535743     2.336073446495
C     -0.137681351235     0.262710561078     2.645012444023
O      0.798744877572     0.572474645054     1.858070535470
C     -0.153297589105     0.818013649628     4.011966795510
H      0.711769615881     1.491603423420     4.135841745357
H     -1.095156395832     1.377815235090     4.142226093503
H     -0.100893315447    -0.022393871580     4.725029703602
N      1.221479745937    -0.164751602501    -1.311129242825
C      2.507637098786    -0.412178488180    -0.907442979134
C      3.270515237532    -1.345308683275    -1.581081672580
C      2.749994442767    -2.035035237256    -2.654535256203
C      1.454127646465    -1.782670370932    -3.023521055221
C      0.702879558099    -0.831865750209    -2.303183714225
H      2.926529335974     0.122196326064    -0.062845181383
H      4.283110377721    -1.528854271012    -1.260685235061
H      3.349054168293    -2.767847398052    -3.188690884812
H      0.983213734970    -2.295763552085    -3.838481386073
O     -0.544775559728    -0.688892809960    -2.714872164990
H     -1.158022722684    -0.217075315023    -2.017346895283

