# STO-3G

title

0 1
C      1.365234640183     3.001996383859    -1.610057089805
C      2.016718386831     4.092923481778    -0.990885314518
C      2.617186381598     5.100560761616    -1.775903023649
C      2.568869701823     5.029661627233    -3.181113629399
C      1.923273933803     3.941263199507    -3.799807243272
C      1.329111683378     2.927882229029    -3.019330694403
H     -0.753838365074    -0.465319499675     2.667370236038
H      2.065859107175     4.170502805067     0.094764852490
H      3.115912349010     5.936326616011    -1.288690484099
H      3.028703401886     5.808321654928    -3.785163941278
H      1.886733681649     3.872979668944    -4.885332164082
H      0.855980999503     2.081152240666    -3.514202586186
C     -1.511561736468     2.337339497483    -0.755895019191
H     -2.156998415480     1.472379649483    -0.630567181031
H     -1.438315073020     2.731774268101    -1.763868685591
C     -0.978692278671     3.038085250535     0.325994834635
H     -0.448324085700     3.960238338650     0.145035044496
C     -1.319317068327     2.787360366065     1.737142250078
O     -0.691288412289     3.424861377083     2.622681226784
O     -2.440694901601     2.002038167812     2.052546320193
C     -2.704445959905     1.823128867263     3.451504560830
H     -3.584552042740     1.157186161723     3.579681063820
H     -1.838713671106     1.341127365343     3.958245364009
H     -2.926516047386     2.797638378892     3.941579491692
Pd     0.569398721159     1.549401531288    -0.481874374769
C     -1.061168875736    -0.839791818179     0.349963626985
O     -1.214213994609    -1.069426998045    -0.905870400659
O     -0.272539098588     0.078180687996     0.828302766175
C     -1.854264156254    -1.660535835777     1.378107602809
H     -1.678011175064    -2.728773799086     1.198944490773
C     -3.345418671359    -1.404106726618     1.279747550225
H     -3.882991855810    -2.036990255921     2.015753568609
H     -3.553497033274    -0.339976577236     1.505781822724
H     -3.711925024311    -1.648694390405     0.261524572076
N     -1.380401497522    -1.267647571740     2.703853332892
C     -1.534813314014    -2.076307737910     3.779827613314
O     -2.176983500207    -3.154137074014     3.769132594306
C     -0.906291343580    -1.627065262030     5.042026867030
H     -0.202323279356    -2.415158215569     5.356547671510
H     -0.371639564717    -0.674803569507     4.889166525053
H     -1.706737987932    -1.506641613386     5.791288052684
N      2.119506195971     0.334177793804    -1.166459864357
C      3.415361340065     0.628971027944    -0.837602902307
C      4.453888860820     0.000257496494    -1.491636054918
C      4.200238229795    -0.928049569046    -2.476680279279
C      2.895477609837    -1.211657625412    -2.782767727245
C      1.855589750344    -0.556795139241    -2.087799591785
H      3.623018848269     1.364064986159    -0.068684917288
H      5.470657752700     0.243197967011    -1.229820347668
H      5.014953438713    -1.424296423346    -2.997396103563
H      2.631617238783    -1.926549176939    -3.536539237406
O      0.651563209429    -0.903518575212    -2.469503638017
H     -0.193486746255    -0.842291596663    -1.800413669587

