# STO-3G

title

0 1
C      2.442404146272     1.313966637532     0.674573852771
C      2.873556487651     0.240923907127     1.485247395672
C      4.230247257703     0.136797384298     1.861149426126
C      5.166569441792     1.097346706134     1.434317026230
C      4.740498437505     2.167660782255     0.623862109716
C      3.386288398477     2.275376767529     0.244248287324
H     -3.191227194733    -0.487097028070     1.634295034908
H      2.169703738573    -0.519109560857     1.815464813206
H      4.550412852880    -0.699303385310     2.480056475209
H      6.211136710053     1.011943012006     1.725019296806
H      5.455907595677     2.915362974178     0.286372688527
H      3.079244408073     3.111149521782    -0.383455035989
C     -0.145824769473     1.879899514220     2.206596779652
H     -1.200341576028     1.618206460146     2.226746179462
H      0.532060318951     1.220391029455     2.737945363613
C      0.280117056666     3.110714224237     1.715447790511
H      1.314122843398     3.399664674126     1.827145640911
C     -0.627138740941     4.163741947885     1.229613512049
O     -0.136182461759     5.135427574038     0.597622209579
O     -1.992901080195     4.099458373311     1.541009297965
C     -2.846755839257     4.981127412913     0.801486643932
H     -3.900397826085     4.811245094905     1.112222430118
H     -2.587045067220     6.045963338609     0.995410447846
H     -2.779622954446     4.766688772614    -0.289416623195
Pd     0.528793422565     1.527124698369     0.085418961935
C     -2.495761820278     1.225513880282    -0.299369444751
O     -3.628040893500     1.651368243397     0.062137062859
O     -1.452857169821     1.953375117850    -0.634126793778
C     -2.266009955140    -0.336823128700    -0.250059310510
H     -1.289195840677    -0.592235765566    -0.653677135797
C     -3.328844873384    -1.114889307352    -0.992744332642
H     -3.126893380529    -2.201900826458    -0.900199789308
H     -4.323961732437    -0.895588816352    -0.551720092465
H     -3.330161439412    -0.829928593770    -2.064596687022
N     -2.323561237966    -0.732810115045     1.166674588476
C     -1.276178245038    -1.168626891278     1.874749500474
O     -0.098321762837    -1.333883946284     1.437014528007
C     -1.533578573596    -1.452910979129     3.298163789684
H     -0.600000611047    -1.797490210385     3.776890759934
H     -1.899222991746    -0.527107967004     3.774001661268
H     -2.305419990374    -2.241084261123     3.353096085055
N      0.988038974839     0.530455963621    -1.674548030131
C      1.120857048841     1.336784026561    -2.773347882492
C      1.455326460057     0.788657675155    -3.993499417376
C      1.656227684667    -0.568271244064    -4.117721886139
C      1.501020636013    -1.351971129102    -3.004611694203
C      1.151971725996    -0.755990379112    -1.774141281986
H      0.970522914960     2.406257180922    -2.679386077610
H      1.562907697066     1.430488597914    -4.852829474757
H      1.923697534295    -1.006845443601    -5.075510243855
H      1.633841312894    -2.415278800114    -3.036040648577
O      0.998914453440    -1.621108489661    -0.795479385068
H      0.580011275721    -1.364414592833     0.114983327730

