# STO-3G

title

0 1
C      2.020461374096     3.209765340074    -0.864694748563
C      3.381098702727     3.158208075782    -1.239163006837
C      4.006407565931     4.291018650654    -1.802900568374
C      3.276670960703     5.477962475329    -2.005571778791
C      1.917687820804     5.529588588851    -1.638925789087
C      1.289686083592     4.402760710431    -1.067957255098
H     -3.205862101397    -0.297110832830     1.756299089391
H      3.956782074871     2.243459771408    -1.105105359985
H      5.056840314030     4.241025584121    -2.083795145079
H      3.759761985577     6.349950574172    -2.440482661086
H      1.346015187676     6.443422973262    -1.789903645503
H      0.238104323296     4.464540011369    -0.790718825826
C      1.873849667500     1.803748679997     1.929352956878
H      1.689634492326     0.832702151294     2.380769537800
H      2.908269216569     2.061172889897     1.724174928971
C      0.869961934270     2.767285853047     1.830419095409
H      1.130734974326     3.754950075007     1.484785174988
C     -0.461706929020     2.676282432009     2.455870041845
O     -1.214937498239     3.682071765273     2.377880984368
O     -0.722931078192     1.631423214080     3.359360753354
C     -2.021554026966     1.656612006212     3.971064746292
H     -2.134498910294     0.783564636537     4.647742134359
H     -2.162785382008     2.581487665983     4.573598476221
H     -2.824799377185     1.593930731623     3.201166524784
Pd     1.118631573204     1.568569974835    -0.150433015142
C     -1.015270754071    -0.280985384165     0.742334264079
O     -1.708860270564     0.744694849799     0.524694621698
O      0.307889074003    -0.303336337414     0.601175223800
C     -1.659131457145    -1.587392305486     1.260665815020
H     -0.900073460571    -2.136771378978     1.825349520651
C     -2.163456265621    -2.456204483980     0.127557609513
H     -2.600737750331    -3.388245999065     0.539073468991
H     -2.958469390285    -1.908967082981    -0.422795018165
H     -1.335303716074    -2.712389440759    -0.565187127603
N     -2.796905708520    -1.174547523088     2.078339154374
C     -3.211469446952    -1.603847544088     3.299690024195
O     -4.072577225545    -0.996327504545     3.979080766251
C     -2.610874724950    -2.849148528017     3.829938452009
H     -2.769989779512    -3.650111017057     3.089942475563
H     -1.542715622520    -2.663953280629     4.021668885496
H     -3.119946540502    -3.104997210427     4.777189157633
N      1.159956794939     0.691975094652    -2.089908959885
C      1.032910745446     1.462695333423    -3.218271139181
C      1.292900437217     0.921495209626    -4.460367702838
C      1.670256985885    -0.395852555300    -4.586936762750
C      1.764100753603    -1.154743659896    -3.451072679707
C      1.479706702542    -0.571468619138    -2.198758280783
H      0.726470485582     2.498478259191    -3.141434675841
H      1.196111250892     1.540700301255    -5.337666309861
H      1.876186656039    -0.825350141194    -5.563977698323
H      2.033319329970    -2.191902808762    -3.483418832697
O      1.565331185048    -1.411507733596    -1.185406177323
H      1.101657218402    -1.070897046715    -0.314161466197

