# STO-3G

title

0 1
C      0.926693174696     2.821014039664    -0.764612802215
C      2.218430307979     3.007692656221    -1.306530336049
C      2.497246495082     4.135860802360    -2.105395165975
C      1.489933552397     5.083653768539    -2.371682396186
C      0.204762901058     4.902538291827    -1.826816470293
C     -0.079119051290     3.778945180357    -1.021163378530
H     -1.991229904250    -0.677835913756    -0.066353482044
H      3.007094400414     2.281650897064    -1.112752532141
H      3.497393944684     4.271055163445    -2.513167115649
H      1.706280105292     5.953710221792    -2.987317467663
H     -0.576933203579     5.635107728203    -2.018154468997
H     -1.076650828001     3.671323009271    -0.600588673998
C     -0.073233101578     2.405019159008     2.073174063176
H     -0.714181030724     1.761724025509     2.664181054891
H     -0.568422726223     3.252535908719     1.617272131309
C      1.317878419833     2.304149677008     2.116538049472
H      1.929543937927     3.051895755381     1.635798392096
C      2.050672250837     1.357854831832     2.975455149735
O      3.292586356141     1.238726246398     2.816247794071
O      1.344626499928     0.571727416149     3.899173814223
C      2.079263477688    -0.502048095134     4.502672184852
H      1.407858954026    -1.066013523946     5.186495297917
H      2.442514183079    -1.215429990647     3.727794421952
H      2.941129152336    -0.115674093731     5.091799123489
Pd     0.530443164284     1.171014230093     0.297879322995
C     -0.690348135940    -1.182277536420     2.247305570087
O     -0.455158692944    -2.076250929405     3.081856602192
O      0.249101188400    -0.655732939254     1.440084343656
C     -2.120166978785    -0.585821536759     2.045684117534
H     -2.254267046792     0.253891295288     2.738132497589
C     -3.210942968464    -1.599047919040     2.317365816638
H     -4.204397790018    -1.124206622972     2.179551438482
H     -3.114209721932    -2.444667425662     1.606412635121
H     -3.132925320799    -1.979519162142     3.357181450942
N     -2.308506457097    -0.077878164738     0.686265313167
C     -2.768627033902     1.170306356311     0.413562872830
O     -3.003210327502     2.059040372252     1.266783832721
C     -3.002988159041     1.453036738307    -1.018000803833
H     -3.384478935676     2.484245082688    -1.121493328851
H     -2.053032929204     1.324672924677    -1.558733834035
H     -3.754766638367     0.732057149744    -1.385404600431
N      0.868727997547    -0.037951843372    -1.433311905612
C      0.668769877285     0.439651990297    -2.704128055390
C      1.186338220529    -0.231838675838    -3.791468515899
C      1.904754528200    -1.392931366285    -3.622276820497
C      2.080752482016    -1.866362379330    -2.351056289034
C      1.532195378733    -1.161509069052    -1.257771402353
H      0.099700222284     1.347151398664    -2.863181549803
H      1.025797116609     0.160568920212    -4.782464802084
H      2.315243058891    -1.924516718473    -4.476815741420
H      2.618520877788    -2.772338110958    -2.151399809063
O      1.748545856336    -1.726058663217    -0.097899339442
H      1.172621648347    -1.334159781634     0.729203848131

