# STO-3G

title

0 1
C      1.033326912784     3.195938648046    -1.622125067880
C      2.409677945316     3.530775801556    -1.575276081554
C      2.951935052817     4.495487672749    -2.447400841305
C      2.133323971180     5.135485605779    -3.399759632211
C      0.768927316463     4.803103883128    -3.470974123616
C      0.221855075891     3.847805511297    -2.586198672055
H     -0.634150285469    -0.527504074188     3.737228858845
H      3.066816555603     3.035450173165    -0.863365732672
H      4.010838772977     4.739640915149    -2.388947468216
H      2.554388827790     5.874005029627    -4.077693344904
H      0.126769501409     5.279581835520    -4.209086297745
H     -0.841373370734     3.618602012660    -2.668943142281
C     -0.313152427189     3.366768231566     1.190246957500
H     -0.305692863064     2.793855214975     2.112258767926
H      0.439708004910     4.139790831176     1.072235049813
C     -1.360456366834     3.261402299407     0.273937153938
H     -1.375349095753     3.929081081213    -0.573436171456
C     -2.617401662228     2.520831426313     0.487259072567
O     -3.488909241841     2.567608398039    -0.419569813149
O     -2.895616664921     1.955205633292     1.743356655193
C     -4.140660868641     1.250301344518     1.845240151535
H     -4.253491356499     0.849414193352     2.875035001578
H     -4.999690143319     1.929470963929     1.642876648078
H     -4.168327857327     0.395348011903     1.130710356714
Pd     0.335844270878     1.837224754856    -0.283277217899
C     -1.000818527738    -0.505067049497     0.926146836220
O     -1.692838566742    -0.583135192812    -0.124302047068
O     -0.201688100534     0.508503633636     1.232087537447
C     -0.957955719924    -1.651975401886     1.981000448096
H     -0.429749530692    -2.489076048072     1.509394702553
C     -2.330865471700    -2.117482118033     2.411935337337
H     -2.226393183091    -2.977985967628     3.104466557266
H     -2.847605785569    -1.294340434860     2.942294700931
H     -2.926244371178    -2.428676280672     1.528772908966
N     -0.212395749922    -1.253818576322     3.169328933875
C      1.132233126161    -1.434712550301     3.243862335427
O      1.828621682973    -2.029471580445     2.386095620983
C      1.781648951749    -0.872149469271     4.446971715006
H      2.861196204012    -1.098441524702     4.405422812802
H      1.608991269618     0.216326781006     4.444647852881
H      1.319859352389    -1.341109173237     5.333003251747
N      1.459263319173     0.281294723540    -1.124917525791
C      2.206378189785    -0.490735372462    -0.272919375972
C      2.784437493410    -1.656056858282    -0.731806932125
C      2.608737537364    -2.060911137482    -2.036288802104
C      1.864341980731    -1.263758238752    -2.867167657490
C      1.293071219821    -0.082910571096    -2.355559418344
H      2.360677995953    -0.169251325880     0.749195699345
H      3.341929420034    -2.268299589455    -0.039521303017
H      3.046738155652    -2.988288713717    -2.395320886150
H      1.681929798291    -1.520747940593    -3.891211131481
O      0.576220010329     0.604306097863    -3.237997733506
H      0.265099011164     1.467062437037    -2.869369798302

