# STO-3G

title

0 1
C      0.586342591704     2.681057590208     0.192016415396
C      1.625062633421     3.512702382053    -0.273742715611
C      1.410980776143     4.902266682215    -0.401515428744
C      0.164073974820     5.463013320529    -0.066797179732
C     -0.873654124315     4.626747406677     0.390339114836
C     -0.669930244301     3.237462390050     0.518358509370
H     -1.842112681717    -2.897748145488    -0.155046189646
H      2.593124960567     3.094666755344    -0.543162018581
H      2.219157465268     5.538091765030    -0.758615560593
H      0.003281589982     6.534598609546    -0.161798540944
H     -1.843105275276     5.050677928194     0.646023718632
H     -1.481808083264     2.597059758955     0.852310200796
C      2.487148415822     0.845978648020     1.703843920938
H      3.025623214686     1.773651153096     1.545016099307
H      3.002993743272    -0.073187816795     1.440412525060
C      1.327165092148     0.789010220292     2.509704060272
H      0.968432578897    -0.180536029287     2.828258812911
C      0.791938052692     1.926233794548     3.278074649519
O     -0.233408401657     1.746699931771     3.984530266437
O      1.440714283102     3.171279334626     3.222977267539
C      0.771243818118     4.256216060583     3.879119007527
H      1.367776599602     5.185113081939     3.752956341365
H     -0.232729060792     4.429094253300     3.429159232228
H      0.661762595364     4.055079544860     4.968887322709
Pd     0.794152627372     0.702970596640     0.344592027521
C      0.585742750835    -2.401259778439     1.226025024646
O      1.126783499992    -3.472664377173     1.567299906648
O      1.184040297350    -1.448432626344     0.502943800270
C     -0.905449031921    -2.050402278949     1.555341104730
H     -0.948797601164    -1.047692553981     1.992184998522
C     -1.569478310234    -3.035173736203     2.490943227909
H     -2.622245352674    -2.731499616792     2.665901651418
H     -1.556568031631    -4.046078920786     2.033348832719
H     -1.029513915081    -3.065087300509     3.459478973322
N     -1.674240384624    -2.011591800297     0.306175708876
C     -1.986740147415    -0.862571866654    -0.329296921101
O     -1.663383447286     0.292889987942     0.057311775633
C     -2.759156972460    -1.009657753849    -1.578391807213
H     -3.696519946640    -1.538614189482    -1.336428419445
H     -2.972088207828    -0.006489652165    -1.985626486639
H     -2.151215184808    -1.594432754529    -2.290877734789
N      0.781897634129     0.492093360550    -1.820793033083
C      0.084882818146     1.372947811908    -2.606929807946
C      0.240242279098     1.347267156003    -3.978337563246
C      1.092079211470     0.441539563975    -4.570494536866
C      1.761993330599    -0.441336670379    -3.766024582963
C      1.565043070272    -0.396863900653    -2.369070544062
H     -0.595944173386     2.085810477471    -2.158624183879
H     -0.308529557331     2.048290017081    -4.585638374545
H      1.220763542554     0.420518195130    -5.649454466865
H      2.423668969241    -1.185440368857    -4.163129137283
O      2.231131942640    -1.318822053194    -1.701626837755
H      1.913807667638    -1.474314419655    -0.709238282034

