# STO-3G

title

0 1
C      0.801205559400     2.848547919383    -0.949461767776
C      2.004908648759     3.220427394899    -1.585792210692
C      2.024573137190     4.309590017209    -2.482333107421
C      0.845827681661     5.032629048581    -2.747542306999
C     -0.355081756193     4.657918493880    -2.114163995401
C     -0.381162121955     3.569522251745    -1.217412356660
H     -2.681119866585    -0.408962690080     2.483207450282
H      2.921810562817     2.663226232183    -1.400850413397
H      2.958095501596     4.588250859424    -2.968103851374
H      0.862980919044     5.874324030341    -3.436388092507
H     -1.272253042750     5.208412949260    -2.316235871954
H     -1.318041797006     3.273079911725    -0.754343322942
C      1.968259841647     2.264815385198     1.721364498355
H      2.466445400480     1.455652692314     2.249546349130
H      2.598181672014     2.939427284340     1.153605909549
C      0.630743434753     2.612151335564     2.022195736454
H      0.225862642242     3.528927053063     1.618783964939
C     -0.128589395419     2.056270185221     3.156971382092
O     -1.272644607151     2.522158621850     3.398424017617
O      0.477195061159     1.119586138329     4.008122304621
C     -0.368466602369     0.539855248943     5.010381945994
H      0.212888059323    -0.212235277228     5.587172478774
H     -0.739641005865     1.316675118037     5.715887178850
H     -1.232102850212     0.014595741461     4.543525230596
Pd     0.727380990974     1.255180256700     0.253866086564
C      0.191868745061    -1.436886982404     2.104468233812
O      0.591695031846    -2.192039097809     3.019181456608
O      0.935122684640    -0.490451751967     1.535712037688
C     -1.263526457718    -1.638706613899     1.566956487624
H     -1.709940492112    -2.375609569475     2.244292207186
C     -1.288178962974    -2.222663013994     0.166848368452
H     -2.338787826466    -2.366317863363    -0.159881227230
H     -0.778575088221    -1.544918727204    -0.544970533529
H     -0.771355621497    -3.204634946180     0.157225970147
N     -2.137467008393    -0.449790366190     1.629085614753
C     -2.317936755112     0.554193626769     0.738858686012
O     -1.617958730641     0.772038619566    -0.288385095088
C     -3.465875453390     1.445931811739     1.012363748158
H     -3.534649882321     2.204312285200     0.214046909261
H     -4.376302162633     0.823863343369     1.029568616508
H     -3.313130093254     1.930187866233     1.992499114227
N      1.297626664539    -0.002004154715    -1.395428649042
C      0.774099055537     0.185715208715    -2.647076597165
C      1.304257586774    -0.500649062005    -3.721796825869
C      2.352431458554    -1.378417134147    -3.545455608549
C      2.842104452388    -1.561725835377    -2.278121835349
C      2.264361667026    -0.852656724409    -1.204825971108
H     -0.048816346747     0.875757702634    -2.794360236318
H      0.891912592840    -0.341868607180    -4.704664256693
H      2.773537155267    -1.918998460457    -4.388972664010
H      3.642244374318    -2.243179152098    -2.067774477059
O      2.780138250524    -1.128988353291    -0.018027804006
H      2.164224956200    -0.857188148840     0.775779061911

