# STO-3G

title

0 1
C      0.723445293681     2.568730700623    -1.370149428997
C      2.015883130802     3.037815813310    -1.052898145614
C      2.529890647700     4.184253243003    -1.695129100447
C      1.762506940651     4.864759589747    -2.660228413041
C      0.474687605677     4.394240315197    -2.981262043784
C     -0.046495186993     3.250623507690    -2.339914002378
H     -1.928785363495    -2.047476264964     4.246229551553
H      2.626398448898     2.517727955470    -0.317056826509
H      3.526500297918     4.539623857553    -1.439809161129
H      2.162038866608     5.748218971777    -3.152935825539
H     -0.127523433792     4.913178994081    -3.724641130087
H     -1.047267607945     2.905952715037    -2.598220459386
C     -0.181678381474     1.905761212787     1.454209329161
H      0.533232040632     2.721160645299     1.513256590777
H      0.048514690124     1.042733516190     2.074604627743
C     -1.426346138156     2.059751265836     0.837747395340
H     -2.160035087844     1.269290929879     0.930386930825
C     -1.930625968756     3.338535198797     0.308145953434
O     -2.961188900584     3.328116268644    -0.414395091810
O     -1.180973274017     4.513171352304     0.496698759534
C     -1.701150247255     5.697988400324    -0.121415085087
H     -1.024018612025     6.551875634791     0.095521887082
H     -1.758152312497     5.575332547603    -1.226386442764
H     -2.711561800255     5.941926546045     0.278038036501
Pd     0.015946981247     0.894618982187    -0.546770689059
C     -1.393835491809    -1.240588052357     1.437147934906
O     -2.489796864196    -0.683071600435     1.670081263533
O     -0.636447150634    -1.004529051342     0.366745045834
C     -0.771470273584    -2.243585451358     2.458862583474
H      0.313167124434    -2.258588960141     2.314062134534
C     -1.313558143214    -3.646150230082     2.296556042037
H     -0.841583618879    -4.313280722939     3.047347248530
H     -2.410913287746    -3.639657371169     2.462734330333
H     -1.092777182512    -4.027404608945     1.278467664375
N     -1.049305009517    -1.790151961685     3.818281912404
C     -0.345230654738    -0.744590750642     4.322934957924
O      0.572662443686    -0.148780913891     3.706400349010
C     -0.723316037009    -0.307922841059     5.681258544244
H     -0.074413414045     0.534352457814     5.977515733066
H     -1.779820936908     0.007423950999     5.648997023569
H     -0.590754580085    -1.163871626597     6.365141387501
N      1.207325038262    -0.267806965590    -1.900133848614
C      1.543391652024     0.190571969494    -3.149601110786
C      2.531786557388    -0.436759207289    -3.879475877880
C      3.190261738212    -1.533007657379    -3.372438833595
C      2.823214132978    -1.994366668930    -2.137753768661
C      1.799341604481    -1.337410118140    -1.422209355639
H      1.030783949969     1.041902385975    -3.577237044510
H      2.789327843037    -0.058747278006    -4.855579353721
H      3.972275871418    -2.027228791197    -3.943013249206
H      3.283376784201    -2.854756298851    -1.693544298945
O      1.510113469970    -1.890763318785    -0.268545576882
H      0.567015796675    -1.558496921914     0.147280908302

