# STO-3G

title

0 1
C      0.678514706626     2.368188664371    -0.660666540782
C      1.609157399550     2.830993622492     0.294449406710
C      2.421237994143     3.949052634193     0.006230587555
C      2.316024635560     4.610189724312    -1.232118264342
C      1.393669915315     4.144881049562    -2.189251774157
C      0.579613283250     3.028078407507    -1.907177051383
H     -1.148574736666    -1.444984788768     3.602832431420
H      1.720764462849     2.321630044629     1.248511194527
H      3.138521041391     4.292775210377     0.749141647357
H      2.946788569103     5.468951682307    -1.449921750149
H      1.306467547490     4.644411032128    -3.152293730224
H     -0.131660438798     2.690766616643    -2.660054165644
C     -1.512592020410     1.728904080292     1.458579084830
H     -0.814913156170     2.437884879707     1.893408645462
H     -1.732368750071     0.838511585114     2.038508728168
C     -2.298214832556     2.028114914780     0.349191147831
H     -3.039892304645     1.309077090156     0.030017036540
C     -2.355258615177     3.350697570580    -0.296007499256
O     -2.942541544277     3.455782146537    -1.404048990988
O     -1.663813374996     4.432720739071     0.275585627754
C     -1.669592421893     5.652433308034    -0.478428871488
H     -1.085201372397     6.423729456072     0.067752493543
H     -1.194678639671     5.503739720524    -1.474290438882
H     -2.708254447577     6.029971521354    -0.614198313428
Pd    -0.495389996412     0.775041481023    -0.325307448110
C     -1.923357678616    -1.449679539919     1.050268820548
O     -2.932458723606    -1.458817169008     1.814485542544
O     -1.850669050362    -0.927129356326    -0.152305997878
C     -0.574673656112    -1.997341767267     1.660945014776
H      0.260732865264    -1.777150245458     0.998758345093
C     -0.614964985698    -3.483583461239     1.933270180142
H      0.343701270096    -3.802822678829     2.391653102164
H     -1.442323288334    -3.708333975446     2.638763189643
H     -0.774452193253    -4.040239876772     0.987232174110
N     -0.385615672406    -1.305493518864     2.945948698460
C      0.495171079593    -0.318110897511     3.145153149382
O      1.329376544071     0.119096723661     2.297723291543
C      0.453439378259     0.323451788151     4.471643938199
H      1.219042978328     1.118096611212     4.516983722264
H     -0.555501183730     0.744845966840     4.618742021446
H      0.659577160463    -0.451558296944     5.231051273912
N      0.816178294154    -0.378426365722    -1.442128893300
C      0.390947492106    -0.656158221471    -2.713801276595
C      1.178288865258    -1.414750868620    -3.553848168428
C      2.392672558419    -1.900203471010    -3.122318639997
C      2.784660886814    -1.620310691953    -1.839805250282
C      1.949411109623    -0.845196816542    -1.007025667834
H     -0.560833738398    -0.270473696240    -3.060788071359
H      0.839060963504    -1.624165099942    -4.555293634704
H      3.020565928775    -2.495774526133    -3.779779128401
H      3.713928539547    -1.975205565885    -1.440114997168
O      2.428425231577    -0.679394160086     0.205800330355
H      1.875920111864    -0.276067920996     0.982253700041

