# STO-3G

title

0 1
C      1.155568034160     2.411913579755     0.108253170814
C      2.523061921922     2.641263895693    -0.152764195498
C      2.960748410882     3.937122887364    -0.499726794479
C      2.037840200485     4.997210825684    -0.587118115781
C      0.673232812399     4.756785732161    -0.334377882298
C      0.222417387844     3.464718956109     0.011670988814
H     -1.547839167017    -0.372662582333    -0.711889948343
H      3.247994924377     1.830753341023    -0.085630404024
H      4.016718194635     4.110757092745    -0.698318914367
H      2.377169034662     5.995979687578    -0.852285574526
H     -0.046871110189     5.569281893936    -0.408761274455
H     -0.837550818689     3.279293477791     0.166121028192
C     -0.318117883607     1.164962081323     2.510692720804
H     -0.634847380563     2.199484223927     2.436071909078
H     -1.104661011949     0.422112907524     2.591073147699
C      1.004601631275     0.796034114969     2.767225156822
H      1.228472637776    -0.247781670851     2.943318083613
C      2.088711314188     1.745915784885     3.070795903953
O      3.268360128376     1.312884818999     3.137481141581
O      1.798500015200     3.114569284070     3.203363791313
C      2.927626143613     3.985194724758     3.354738389546
H      2.572324869361     5.034818199970     3.436684148075
H      3.500713664716     3.735575263061     4.276163635687
H      3.598729102146     3.918309056199     2.468852697610
Pd     0.562138747630     0.556435674451     0.546860999785
C     -1.155408937392    -1.906850442721     1.577106124338
O     -1.360016737356    -2.128399193301     2.786928796414
O      0.044399893755    -1.555740179561     1.073760757587
C     -2.350037978722    -1.860121345601     0.561697692809
H     -3.265000086595    -2.018419752996     1.139963956269
C     -2.276227236029    -2.928019778723    -0.507723150073
H     -3.180809599405    -2.869345316214    -1.147754459441
H     -1.386700440754    -2.767924030768    -1.149481142869
H     -2.221877621650    -3.934324671748    -0.043489622690
N     -2.347158171749    -0.547820824493    -0.101363542389
C     -2.953973237673     0.607748403668     0.285059481024
O     -2.583695218344     1.736022821050    -0.128674052233
C     -4.106943634803     0.512856566975     1.205271579023
H     -4.515491839364     1.528310149484     1.357084491675
H     -4.868067653161    -0.127844034698     0.728852496303
H     -3.768782767853     0.096605710494     2.169652683769
N      0.663597889203     0.003606865888    -1.518207981583
C      0.499843709583     0.932625875638    -2.514448408667
C      0.901309409208     0.644357002739    -3.803376672275
C      1.452635832362    -0.578490426433    -4.111120013615
C      1.575738886647    -1.506112480142    -3.111528905483
C      1.150600113690    -1.182164612796    -1.805832239078
H      0.048045838299     1.892448418976    -2.298736082704
H      0.772430322476     1.387492962010    -4.573102258782
H      1.767314073480    -0.807437634303    -5.125791530817
H      1.974123479826    -2.484713408873    -3.290188557665
O      1.263004795292    -2.160958896218    -0.941855020518
H      0.761840100745    -2.001658541274    -0.007425501127

