# STO-3G

title

0 1
C      1.241598822428     2.877370431417    -1.180814187419
C      2.284662784492     3.597254473613    -0.557541247429
C      3.144633681860     4.406462694934    -1.331200696671
C      2.969232940952     4.503069196921    -2.724671761664
C      1.932104929298     3.780424597062    -3.346494343963
C      1.072340205670     2.966828270029    -2.579692068220
H      0.079534277929     0.488119313235     3.176123951275
H      2.448697324468     3.524848043542     0.515817365005
H      3.947512256846     4.956020503909    -0.843656316822
H      3.631851535599     5.128314999555    -3.318671000617
H      1.791610220435     3.842109128054    -4.424037351496
H      0.285224473068     2.402127922992    -3.077507462895
C     -0.705535852946     3.400098213641     1.132638873937
H     -1.051658487774     2.912269773762     2.038355624395
H      0.177879839651     4.023446541435     1.211692787151
C     -1.480974417354     3.409306377251    -0.028844280369
H     -1.162325890525     3.996619246285    -0.877542464521
C     -2.851371824656     2.873517074078    -0.126722811886
O     -3.403450469995     2.849487937145    -1.257356825648
O     -3.542253073411     2.482921350709     1.034239409595
C     -4.838937166981     1.906603706653     0.826586469255
H     -5.280784706514     1.632518476625     1.808456669036
H     -5.520804880088     2.632901272933     0.328697722519
H     -4.764999641817     0.982717266402     0.208721835701
Pd     0.014430400642     1.703124404307    -0.119877031065
C     -1.445946996693    -0.659633602759     1.312364181130
O     -1.693684659485    -1.470388081230     0.351279255829
O     -1.322277609294     0.622492929948     1.184316355938
C     -1.068918885125    -1.207933006250     2.718166237538
H     -0.945973296274    -2.292669934024     2.658205100333
C     -2.097864285470    -0.890735600917     3.779096994778
H     -1.744318341701    -1.271019796219     4.759661054971
H     -2.232373301463     0.208812608005     3.852412336550
H     -3.067615820168    -1.366154232593     3.526443314947
N      0.187250341955    -0.521099999700     3.072053580746
C      1.434107384808    -0.829593388542     2.606228730858
O      2.338341937791     0.031045366008     2.464211343779
C      1.723337332287    -2.244907967549     2.289208508201
H      2.794378616591    -2.329759370131     2.032257357541
H      1.499641075236    -2.845993905701     3.186152553591
H      1.111458282567    -2.549340561524     1.422997929214
N      1.171441859592     0.076157937435    -0.799248122982
C      2.528761240236     0.121265167435    -0.604891625723
C      3.352927413117    -0.748522736498    -1.289208755239
C      2.827561069592    -1.661224260284    -2.174963163089
C      1.468079277845    -1.701383656928    -2.335941004805
C      0.651222991746    -0.813078242013    -1.602071571500
H      2.957100896820     0.848829471580     0.073628149607
H      4.417993219886    -0.695656304438    -1.133823575251
H      3.474564184059    -2.339264908116    -2.725039177262
H      0.993926473338    -2.397619020951    -2.998361292111
O     -0.643472165345    -0.965999988569    -1.797112673993
H     -1.248924858565    -1.055518865416    -0.917022367134

