# STO-3G

title

0 1
C      2.246144298128     1.395050374031     1.004493134582
C      2.682318510552     0.685272710656     2.145723250402
C      4.024939034816     0.776037024702     2.572237455058
C      4.940715560661     1.584376541715     1.873879300066
C      4.507514658066     2.304227690370     0.743403916040
C      3.169832977001     2.209205704889     0.308979141304
H     -1.178006887599    -0.526969089824     1.849903330985
H      1.999940066697     0.057277842027     2.716075706307
H      4.348068836146     0.219569015376     3.449924316828
H      5.973372270878     1.656821350618     2.206907492113
H      5.204523450332     2.938719887379     0.199151123004
H      2.854560541210     2.767296742861    -0.571511158322
C     -0.473162003223     1.915964009518     2.299213763672
H     -1.511420484863     1.597769058076     2.321504216192
H      0.198679655648     1.470437324701     3.024227527653
C     -0.108449764265     3.079586606064     1.616002416123
H      0.880732991604     3.492035972687     1.740879451413
C     -1.060619185139     3.946410385849     0.898968988555
O     -0.608306703170     4.889249198298     0.200515140477
O     -2.438969164580     3.706777222738     1.014536616790
C     -3.276320967061     4.403103900819     0.081358519404
H     -4.334954561176     4.106289675530     0.246406461340
H     -3.192744437671     5.505307340943     0.213303560667
H     -3.012407501857     4.128534219591    -0.965871954209
Pd     0.360415255042     1.270019654298     0.324019074083
C     -2.831939000872     0.766233384778    -0.294864485440
O     -3.887895796428     1.228367168087    -0.768703092578
O     -1.629172773240     1.332406066870    -0.495463785977
C     -2.855055940057    -0.569389793511     0.517287272407
H     -3.175024327225    -1.330322907854    -0.205663372131
C     -3.856675574455    -0.540802887905     1.652461759790
H     -3.876985268522    -1.529916380764     2.155290198302
H     -3.570437404172     0.234030100431     2.389466937656
H     -4.871233246918    -0.316872038304     1.261050520378
N     -1.567899216887    -1.007850638197     1.049718311390
C     -0.847659970444    -1.981142839302     0.419984137659
O     -1.177353338310    -2.535834253422    -0.649055733493
C      0.399281516375    -2.392017860614     1.099081466406
H      0.855227210371    -3.215962708812     0.520629195385
H      1.074764647392    -1.528022703672     1.128194045576
H      0.140074856535    -2.737510281504     2.115073012227
N      1.069568633378     0.487699735744    -1.509826583179
C      2.173846122432    -0.322240824096    -1.587802363106
C      2.722363340558    -0.635828637219    -2.813109920743
C      2.162655650364    -0.155438375503    -3.974937940669
C      1.048265604850     0.632737425422    -3.880027760472
C      0.503101746735     0.924938656325    -2.611694666222
H      2.628683003852    -0.712517810961    -0.685778109161
H      3.594263932068    -1.267556999407    -2.858548304095
H      2.589094680844    -0.402981728764    -4.943487351438
H      0.551378832645     1.021206525114    -4.747041590612
O     -0.582619972151     1.656231073381    -2.650459193919
H     -1.161887815401     1.654448382671    -1.751350582553

