# STO-3G

title

0 1
C      1.229619828579     2.507024071522    -1.004757488830
C      2.411043335501     3.271762783773    -1.117207137742
C      2.493991457339     4.310102888440    -2.069701738643
C      1.402218322401     4.594209507039    -2.911877149107
C      0.221877883656     3.834041436260    -2.798453649250
C      0.134182352618     2.793526569223    -1.850649718347
H     -1.538337749474    -2.434384407174     1.733293325649
H      3.267309175828     3.069934089199    -0.476834012361
H      3.408869139415     4.894567893845    -2.146342615248
H      1.468635578990     5.396960884875    -3.642635139871
H     -0.631237357228     4.047817153100    -3.439832493865
H     -0.787523441535     2.218601177708    -1.771546613124
C      1.599262982791     2.224116983141     2.075583578710
H      2.270723968497     3.024048764617     1.780363325899
H      2.003262077504     1.433019402363     2.703271045258
C      0.216902812811     2.331081006712     1.906526170761
H     -0.441137866415     1.593667298564     2.346956797537
C     -0.470614581514     3.526520151874     1.387370904625
O     -1.666336201971     3.416859223584     1.008106276417
O      0.269650142353     4.697932229142     1.145705812741
C     -0.436446815589     5.763924788822     0.496662248179
H      0.248570606460     6.627512798972     0.358570131751
H     -0.795024278592     5.445056300344    -0.507956298653
H     -1.302606239999     6.097635087745     1.111747514966
Pd     1.123747636379     0.970809397019     0.264733702011
C      0.864915042251    -0.961847530462     2.910118229030
O      1.691333439794    -0.462809570025     3.696163482905
O      0.887375808185    -0.767346131081     1.579634595966
C     -0.320482220015    -1.852558702007     3.403456609980
H     -0.603045279965    -1.457010693984     4.383720875977
C      0.073362205741    -3.306156360995     3.548417952357
H     -0.787883020130    -3.882416218318     3.945555065412
H      0.352167111813    -3.718099196155     2.556879234530
H      0.929731737981    -3.402979272632     4.247484943596
N     -1.465192012657    -1.770428360074     2.496111872408
C     -2.161775638115    -0.603864667651     2.432678445156
O     -1.903300510880     0.394245937890     3.151730603342
C     -3.262363811111    -0.514470929450     1.450553012564
H     -3.033821184666     0.322945487978     0.770098117510
H     -3.353008490494    -1.457548430310     0.885106231274
H     -4.192664283717    -0.310140978856     2.007244229905
N      1.039289275359    -0.382030949326    -1.395242799614
C      1.644560210867    -0.090958081606    -2.592390666194
C      1.385878589545    -0.859971369217    -3.708242064282
C      0.526667204505    -1.932577183982    -3.637639413899
C     -0.045277671074    -2.225411253105    -2.429628624024
C      0.249836563040    -1.425663247872    -1.304566753447
H      2.333254725660     0.741141138394    -2.669836692448
H      1.861810571097    -0.612931556309    -4.643285480761
H      0.318387873894    -2.539267747288    -4.515038686424
H     -0.705993105704    -3.059448643814    -2.299257379964
O     -0.318485045228    -1.820379150016    -0.188876209045
H      0.151901159958    -1.367871143877     0.727315084321

