# STO-3G

title

0 1
C      1.290056314244     3.153274793977    -0.538297753164
C      2.493848381862     3.888506482192    -0.591380377237
C      2.487770183181     5.218061349297    -1.067066710000
C      1.285008974233     5.818207623939    -1.485109439975
C      0.083483258983     5.084214318090    -1.424446512688
C      0.082104213927     3.754798770481    -0.954546844062
H     -1.598866997756    -2.387710085842     0.198192691217
H      3.435344317643     3.441622867744    -0.277213630637
H      3.419713459595     5.779133973454    -1.105389508834
H      1.281059521471     6.844521412655    -1.845241054850
H     -0.853281113026     5.544457911762    -1.733470878150
H     -0.854516001531     3.203368514083    -0.897283535915
C      2.177708228311     1.616432804610     2.078686396034
H      2.244161435610     0.634459149799     2.538619403657
H      3.102049808036     2.033647803840     1.688083270055
C      1.043675948400     2.416259352490     2.185635143432
H      1.082532401609     3.428376525770     1.817106011263
C     -0.133101310585     2.139145187060     3.031596736775
O     -0.971986031354     3.066202550104     3.192630222596
O     -0.133886195757     1.008695356641     3.867777823672
C     -1.279747703293     0.863772935619     4.717760550331
H     -1.175910325940    -0.064882624705     5.318355322636
H     -1.363354808432     1.724215961744     5.419319913727
H     -2.210945136511     0.788001830489     4.110695991051
Pd     1.235074750869     1.251550993555     0.069837737054
C      0.763047591936    -1.363640354665     1.924138688916
O      1.554460580864    -1.351652436031     2.888736507131
O      1.057034341127    -0.861904605284     0.715709257656
C     -0.685579112363    -1.934334276271     2.083663857181
H     -1.102131931093    -1.415346044255     2.953180712878
C     -0.685521661628    -3.420300057066     2.370512418848
H     -1.726686046240    -3.765527984030     2.538433757578
H     -0.261624519939    -3.965544505043     1.502797581507
H     -0.080561030262    -3.636370035306     3.275731952890
N     -1.548697560538    -1.690222873652     0.931650609892
C     -2.009274067296    -0.441810613694     0.644068679177
O     -1.733336053925     0.588608985026     1.302834876181
C     -2.918895404124    -0.342660428580    -0.516211687207
H     -3.785650368136    -0.994741805496    -0.316107473289
H     -3.240969903256     0.707033548627    -0.626287448707
H     -2.380982869016    -0.684026102789    -1.416786656762
N      1.132032127659     0.604550553155    -2.001145576979
C      1.583835312507     1.407284905934    -3.022425821074
C      1.370508156674     1.055728399937    -4.339385628331
C      0.711479748919    -0.107166963840    -4.657834015764
C      0.296799945123    -0.912694775959    -3.635013096570
C      0.542520446484    -0.531039720594    -2.297666061599
H      2.127235948222     2.317413176153    -2.814908723954
H      1.726046219475     1.703558888983    -5.124294868348
H      0.539611672165    -0.386460445697    -5.694089972876
H     -0.199289278226    -1.846389369761    -3.812977370386
O      0.131827264871    -1.405491698430    -1.415222225843
H      0.484602193996    -1.218844356614    -0.374671932690

