# STO-3G

title

0 1
C      2.275175548853     1.827607383986     0.941964270534
C      2.736117685084     1.088164330279     2.051097981852
C      4.075813298526     1.231620228586     2.471846642323
C      4.950917405662     2.099138716267     1.790395260780
C      4.486961479922     2.823266282037     0.674972942199
C      3.149166654730     2.689577846124     0.247151489677
H     -1.055050662575    -0.271418814576     2.042477867219
H      2.087723303710     0.372539490437     2.550263848516
H      4.431606795388     0.656339565160     3.324175383173
H      5.981814236887     2.206384722598     2.120104403308
H      5.157435884952     3.491364893119     0.137545568489
H      2.803515364102     3.252693744838    -0.618898647349
C     -0.391017886981     2.679199613178     2.160723276101
H     -1.443572707919     2.419792980695     2.240020250974
H      0.277552380973     2.312757846846     2.933790241626
C      0.039788516338     3.668133191289     1.273333727484
H      1.057667956010     4.021856127408     1.325460510722
C     -0.843617965313     4.463244497358     0.402087453296
O     -0.315086167956     5.170523292423    -0.495129794133
O     -2.234779265013     4.414210192642     0.573354913753
C     -3.016993951069     5.136388019027    -0.386287309891
H     -4.094664181412     5.008401087343    -0.145936550630
H     -2.778175859604     6.223347864335    -0.355893422720
H     -2.843211019839     4.742697396966    -1.413096169493
Pd     0.380609657056     1.625494309130     0.328648138332
C     -2.656165885505     0.927168651709     0.538060129434
O     -3.394700380403     1.551551183076     1.326838844053
O     -1.777500624882     1.520201503384    -0.292822006007
C     -2.542782328457    -0.636829605299     0.576843948433
H     -2.507625542747    -1.012218332430    -0.452127548710
C     -3.675807641581    -1.302768096677     1.323171476488
H     -3.533800786586    -2.402154666341     1.321413560428
H     -3.681338129991    -0.945492811121     2.374687643800
H     -4.646507239369    -1.054150479320     0.846972830115
N     -1.282890274974    -0.918612804638     1.290065251984
C     -0.266711181491    -1.771979156438     0.997821317766
O      0.852952942892    -1.710443654864     1.565531205123
C     -0.518211331294    -2.831113432902    -0.003263815288
H      0.376772516762    -3.477007094490    -0.052978461003
H     -1.387839644137    -3.418859448952     0.332648813301
H     -0.690570786254    -2.368645512031    -0.987771501799
N      0.976469922794     0.208646511824    -1.163157023083
C      2.142178070208    -0.513896392666    -1.066912301643
C      2.543412814121    -1.327608059575    -2.107084893387
C      1.791399864590    -1.427721315434    -3.253087219136
C      0.619072737110    -0.726077930677    -3.319824549995
C      0.227700911578     0.085812615687    -2.233664327505
H      2.751160187222    -0.470941723816    -0.175469340443
H      3.462322958635    -1.883773224861    -2.014042286880
H      2.111388726262    -2.060934912855    -4.076485510516
H     -0.022557753195    -0.775599228969    -4.177324776437
O     -0.943137228909     0.653928388070    -2.393846199647
H     -1.387491383603     1.070123533979    -1.504368384985

