# STO-3G

title

0 1
C      0.696026072335     2.639992872741    -1.085547263732
C      1.471698412818     3.749493313830    -0.684021408639
C      1.466739353980     4.933188028946    -1.453304999150
C      0.687357545326     5.018946973878    -2.622292373982
C     -0.087402558255     3.912550960970    -3.022480259348
C     -0.081352355274     2.725870273476    -2.261108581591
H     -1.841630486336    -0.874524930071     3.113155131292
H      2.075383693653     3.709513979110     0.220780549200
H      2.066188420207     5.783116327038    -1.133073593661
H      0.682746827724     5.932608641878    -3.212076059462
H     -0.694914967696     3.966285583768    -3.923964596792
H     -0.683217537500     1.878995395324    -2.586542234265
C      0.104724315924     1.866324800037     1.936382932891
H      0.486101846206     2.877071030587     2.031657960507
H      0.536087945947     1.118419017808     2.588465226608
C     -1.065388559729     1.596740973414     1.230524565492
H     -1.511466686561     0.611297860228     1.260721062399
C     -1.917704323956     2.630489227077     0.617413147408
O     -2.878495084873     2.268332074990    -0.110612932621
O     -1.561677453947     3.985740225148     0.741798470424
C     -2.350992118243     4.913172163883    -0.014874013773
H     -1.973434745503     5.943353903778     0.158471517606
H     -2.275118329591     4.697001715931    -1.104578369990
H     -3.418606314170     4.872992267751     0.299092357920
Pd     0.772855449511     0.946663479224    -0.022137844651
C     -0.022139284537    -1.626821873058     1.328026833123
O     -0.911983559925    -1.736297054535     0.394128048756
O      1.009952977409    -0.852046773047     1.247623443786
C     -0.297997656649    -2.266580569696     2.713304940604
H      0.661021357882    -2.552686255990     3.153185985102
C     -1.207482100495    -3.473294633082     2.669911264833
H     -1.357865611767    -3.859673714271     3.698865411726
H     -2.195138142204    -3.180147171363     2.255339218342
H     -0.763056871199    -4.267907310991     2.036488061415
N     -0.959576073572    -1.212171790944     3.494867568044
C     -0.476063002458    -0.414746372517     4.491343098353
O     -1.066119114973     0.622263750939     4.873795186961
C      0.792735039765    -0.813741462408     5.138732532243
H      1.600379156707    -0.762999550969     4.390823558031
H      0.994984011185    -0.103409209094     5.960284763968
H      0.668304476235    -1.831803223732     5.546424024389
N      1.591379433856     0.046140963280    -1.707330150902
C      2.751102350666     0.538584649012    -2.244155636367
C      3.212519769672     0.059871819258    -3.451798406485
C      2.513072759008    -0.911463757204    -4.131587065392
C      1.358467809000    -1.391419899781    -3.573451046963
C      0.915316441154    -0.885929145859    -2.330927682352
H      3.305030763665     1.308245569735    -1.719294070506
H      4.122793545048     0.458791494155    -3.868419711038
H      2.867827685605    -1.287599285377    -5.087524466096
H      0.766547651265    -2.144971379192    -4.054125216233
O     -0.203932852929    -1.417179063152    -1.914104056597
H     -0.533122534148    -1.425950170361    -0.879119029958

