# STO-3G

title

0 1
C      1.321581859740     2.251161200902    -0.152262608398
C      2.729611196899     2.182920322288    -0.237313972582
C      3.449433433566     3.191998591946    -0.909881672766
C      2.770758062703     4.272461040536    -1.506783148229
C      1.366297815926     4.336311321175    -1.430733123672
C      0.640806793127     3.330099138476    -0.757366279859
H     -4.143100124552    -0.620812549190     1.717031836051
H      3.268109146288     1.349695996301     0.211706869916
H      4.534516154387     3.127217656084    -0.967661326242
H      3.327618164382     5.049118614630    -2.026144974899
H      0.832677991608     5.164714751368    -1.893074423468
H     -0.444786488165     3.390893989506    -0.719877828140
C     -0.736809133122     2.171780795875     2.201177310696
H     -0.885995307214     3.144837289963     1.745317123036
H     -1.609192679292     1.544997884168     2.347600012296
C      0.472118618603     1.812860011873     2.805440862298
H      0.528016962089     0.887334684568     3.362797094062
C      1.623671380101     2.718895693383     2.958741941503
O      2.683842616588     2.271248713712     3.467268612318
O      1.526261356418     4.048305072738     2.511662496775
C      2.739737569124     4.811444350289     2.546552868522
H      2.542285920235     5.833035749769     2.157113150406
H      3.123243275047     4.900633461065     3.588143139431
H      3.517990878865     4.342970940994     1.902293998362
Pd     0.299810192501     0.807059071511     0.776611359731
C     -1.220474988507    -1.767444856944     1.449241009273
O     -0.361794689132    -2.706067718229     1.279829109488
O     -0.935553664833    -0.595767285655     1.906652202389
C     -2.708620736150    -2.027136603348     1.074332072666
H     -3.152692360646    -2.627550559921     1.879262181816
C     -2.858676290479    -2.796396235471    -0.223008817601
H     -3.935416821989    -2.915946429178    -0.462148790563
H     -2.364143414572    -2.246153093739    -1.049664828721
H     -2.395208794136    -3.800229797665    -0.128644186015
N     -3.468298771709    -0.775919060559     0.979303988660
C     -3.165465398511     0.263368332093     0.155787878975
O     -2.228419556535     0.291888335764    -0.679418304840
C     -4.054764650079     1.439928736625     0.278842825893
H     -3.733535755146     2.208628170059    -0.445319173889
H     -5.080810863924     1.104091977688     0.051413300976
H     -3.992588482261     1.822017009051     1.311878990468
N      0.854344112666    -0.445419758661    -0.830822337363
C      0.582345115979    -0.002859134859    -2.099251749518
C      1.208052544621    -0.587169057857    -3.182450811946
C      2.096677252752    -1.623422068307    -3.001721212136
C      2.319783876756    -2.073885771960    -1.727421484153
C      1.644685873780    -1.465796811626    -0.645824510574
H     -0.101963514614     0.823448689793    -2.251000939821
H      1.000917631568    -0.219123212784    -4.173333204680
H      2.595464003554    -2.083394871278    -3.850459799119
H      2.973083181733    -2.897039659321    -1.519353370422
O      1.865119005843    -2.018397881976     0.534330008390
H      0.960741138522    -2.264684645797     1.056433049771

