# STO-3G

title

0 1
C      0.612090049122     2.899409265460    -0.397033096719
C      1.185626757367     3.680856214012     0.631325562134
C      1.986733547842     4.796621874556     0.308573352155
C      2.219246759186     5.138617975921    -1.037595232519
C      1.651501929957     4.355869336285    -2.061407009351
C      0.853300278282     3.236043412387    -1.744773664227
H     -0.709015678576    -1.553986383050     2.710342845354
H      1.010500153185     3.440167467302     1.679373320983
H      2.423805694843     5.392879789529     1.107127182187
H      2.836793000110     5.998598686142    -1.285903072291
H      1.831263733852     4.606820539095    -3.104997594302
H      0.439719670724     2.629515057520    -2.548463069070
C     -2.407609858780     2.045028562797    -0.685341668336
H     -2.213489784080     2.701509084570    -1.528316497919
H     -2.815188432554     1.064818494843    -0.916367364053
C     -2.349996248174     2.494357696757     0.637579048857
H     -2.675639149307     1.836244496282     1.431231275988
C     -2.121477883522     3.898153584135     1.020975363225
O     -2.005877444588     4.180954560038     2.241388291234
O     -1.970164653007     4.875329948667     0.021896436994
C     -1.615555275198     6.188547956597     0.476036185874
H     -1.513780567952     6.864744769873    -0.399810627983
H     -2.400909175350     6.601722352387     1.148688051199
H     -0.639288541250     6.170805795251     1.011255133040
Pd    -0.474049765793     1.303115978889     0.118354680363
C     -1.654973261032    -1.470262864392     0.266956226959
O     -1.574156054803    -1.600377084460    -1.005627224808
O     -1.653240292345    -0.331828415805     0.896141698669
C     -1.546728034164    -2.716465427929     1.189962148810
H     -1.297296889131    -3.587812423959     0.578533280670
C     -2.812048076461    -3.006865721651     1.964152061259
H     -2.648810375058    -3.890673202264     2.614837783153
H     -3.063707714794    -2.138103781041     2.607638641725
H     -3.650818308065    -3.211052304694     1.267780990891
N     -0.484849047328    -2.378110604178     2.151737739897
C      0.862863941114    -2.489460415348     1.961352445891
O      1.691573312415    -1.748907210105     2.547479346865
C      1.348860444745    -3.555000756432     1.057603192799
H      2.452813937470    -3.562612057367     1.099839103347
H      0.947687657244    -4.515590252939     1.420634334672
H      1.020699893872    -3.329099911292     0.029333395216
N      1.262948722894     0.169048699636    -0.264926433196
C      2.359221361155     0.302483351153     0.546914189150
C      3.590993450206    -0.148848342689     0.117237806117
C      3.728085474446    -0.747960898308    -1.114056031770
C      2.610453958878    -0.894956380676    -1.893632828138
C      1.366944877326    -0.427266025714    -1.418810783603
H      2.260278499566     0.778435321784     1.515816413474
H      4.444483991768    -0.038773246875     0.765763399289
H      4.696572707682    -1.104688330855    -1.453955188464
H      2.647271562440    -1.360838166715    -2.857671585923
O      0.353605303808    -0.643469611031    -2.240109567029
H     -0.563418931393    -0.866736410392    -1.792135291380

