# STO-3G

title

0 1
C      0.827344592925     2.565936194235     0.029791494978
C      2.181446258353     2.818586346911    -0.285535725278
C      2.587820168567     4.111503348012    -0.675677010590
C      1.647348290619     5.156539448659    -0.759436192011
C      0.298922098477     4.905337646813    -0.442113052022
C     -0.113578569145     3.615985041256    -0.043610840732
H     -2.137651300204    -0.959569538262    -0.595608125777
H      2.920266486259     2.020887131004    -0.227801076932
H      3.634165081893     4.298691489401    -0.908596109283
H      1.962348327010     6.154088070375    -1.056334794289
H     -0.431919348190     5.710055251836    -0.489789632738
H     -1.157595109229     3.450660717021     0.213690175422
C     -0.625805034896     1.356392915096     2.449710137610
H     -0.889596534674     2.406754209959     2.394721095699
H     -1.466856779525     0.677554744538     2.516981966210
C      0.678105928186     0.931871627969     2.713917827964
H      0.865265745546    -0.119391721034     2.889856222663
C      1.804717360690     1.832220497541     3.021201388485
O      1.609016584253     3.071732259008     3.121004472877
O      3.098607136506     1.289083348437     3.075006601556
C      4.160498473205     2.226329658745     3.304126949911
H      5.131169340544     1.685532633922     3.328597363576
H      4.203138062071     2.983848396388     2.488224102463
H      4.027125760485     2.744388791563     4.281175261468
Pd     0.255243738129     0.706386861450     0.478777670014
C     -1.160069333402    -1.796172265218     1.836159664739
O     -0.900644008076    -2.318649627175     2.935800654598
O     -0.233964348202    -1.369253413461     0.961040166304
C     -2.630597482243    -1.551048922660     1.368860469252
H     -3.176087855935    -1.077214108045     2.191207173399
C     -3.327526152840    -2.845834641952     1.012891497892
H     -4.380090775644    -2.634344037934     0.731931997104
H     -2.815763704965    -3.318449519341     0.149815296521
H     -3.315193519818    -3.539569303190     1.879401983187
N     -2.690440475541    -0.672028360444     0.204490373130
C     -3.157123705285     0.602871479546     0.276664871208
O     -3.595855382376     1.154026559082     1.314160353709
C     -3.133936390648     1.353449590739    -0.995952097493
H     -3.757321995348     0.799513224350    -1.719114411103
H     -3.555258503691     2.359178557973    -0.820957474080
H     -2.093336038652     1.417385459593    -1.352594623415
N      0.758704718418     0.056372615942    -1.492305932107
C      0.718962848389     0.910482061296    -2.565913203083
C      1.322770993324     0.562386242803    -3.755755490506
C      1.967184913527    -0.645927941018    -3.888393391879
C      1.980204210207    -1.494338192230    -2.815065047207
C      1.344738089851    -1.113604577049    -1.613552136425
H      0.208462708074     1.862535002071    -2.488250138390
H      1.288635956615     1.247471977779    -4.587319918010
H      2.445687930899    -0.923121242637    -4.824104481943
H      2.451596778324    -2.456450461594    -2.857667095366
O      1.405590680663    -2.022135682457    -0.670770751126
H      0.769335699818    -1.863309573753     0.165758881163

