# STO-3G

title

0 1
C      1.218676562816     2.937473660600    -1.821271484736
C      2.281799365894     3.860601220204    -1.702411716842
C      2.540582900587     4.784825715056    -2.737685523441
C      1.741976046971     4.796980103716    -3.896601977832
C      0.686046216917     3.873154113375    -4.020668140351
C      0.428323933507     2.943399479202    -2.992162493675
H     -0.463635881443     0.178200273308     2.932948179543
H      2.917940332881     3.872952038866    -0.818941794345
H      3.361990867200     5.491233234357    -2.634664783903
H      1.941001140950     5.510386796869    -4.692799085193
H      0.068373211508     3.865336835313    -4.916574076663
H     -0.374517439350     2.218606425931    -3.119944475596
C      0.401974559186     3.252358055435     1.022095045693
H      0.695974534561     2.911773317150     2.012627105120
H      1.027522180357     3.999745292109     0.553105769559
C     -0.845331328172     2.927609317637     0.495788052322
H     -1.176301486378     3.354632405613    -0.440237815618
C     -1.907012709456     2.300523177258     1.302261948648
O     -2.920257225081     1.843258455783     0.710247322359
O     -1.915025883327     2.541192538337     2.685852261515
C     -3.016662409017     2.001121815979     3.425900265163
H     -2.880689269200     2.240594985875     4.502959610741
H     -3.980455562465     2.438211709228     3.082327095437
H     -3.049404829462     0.895308338636     3.335620415057
Pd     0.786909905705     1.559957112657    -0.425312500877
C     -0.533641403329    -0.914569904165     0.851430902105
O     -0.794348252070    -1.420817163283    -0.297628721161
O      0.169369608234     0.149989570902     1.062012907021
C     -1.129542624153    -1.599991785010     2.107062074604
H     -0.637647248419    -2.579589111193     2.198889916902
C     -2.626118104105    -1.806230524665     1.962151994860
H     -3.058844092880    -2.201198126577     2.901821302563
H     -3.113514777843    -0.838447235170     1.724445355323
H     -2.834728092622    -2.522316587340     1.140195494961
N     -0.862036353766    -0.712299770829     3.235394400271
C     -0.871292901092    -0.874570681763     4.583787287762
O     -0.602561663790     0.069229719423     5.368098993267
C     -1.208530385963    -2.196920609900     5.160416814505
H     -0.372793745202    -2.483746660742     5.820944626608
H     -2.127682383091    -2.066557309444     5.754849914144
H     -1.351331123437    -2.962348702964     4.385243151910
N      2.026855127130     0.293402940948    -1.542766489033
C      3.365047845182     0.582690839915    -1.573029542792
C      4.178371151054     0.002214284122    -2.523392628921
C      3.656777029657    -0.873678346847    -3.449213703310
C      2.319916253536    -1.163956672110    -3.387928024446
C      1.518252015909    -0.561536684322    -2.393537695253
H      3.782759222658     1.278092958830    -0.854639115954
H      5.228066461636     0.244859659713    -2.544647789619
H      4.291320269330    -1.328719295119    -4.205096690365
H      1.853109859653    -1.844481551323    -4.071636899278
O      0.260616675575    -0.919341305145    -2.409686360656
H     -0.262601054711    -1.029749486491    -1.453153808144

