# STO-3G

title

0 1
C      0.499204730466     3.318854918790     0.344598023550
C      1.773537736325     3.376163360371    -0.261611856529
C      2.443675795148     4.609818361498    -0.391753239395
C      1.845950368106     5.797006131439     0.074970764995
C      0.574230917100     5.743032098339     0.676101183764
C     -0.098202094842     4.509400198949     0.814056929571
H     -0.267406463191    -2.107789792417    -1.804320350126
H      2.249115625345     2.469127298729    -0.631228087159
H      3.427157838341     4.637982878002    -0.857273541850
H      2.363379262804     6.747947463153    -0.028455763079
H      0.104529037916     6.653815871711     1.042504036194
H     -1.077351262769     4.491199695882     1.289567943170
C     -0.797438376849     1.626019026596     2.733187268460
H     -0.979757752923     2.641966590747     3.067959705740
H     -1.641534769474     0.944704019549     2.741245424644
C      0.498271461776     1.142551489898     2.543897154172
H      0.667301493493     0.096482923186     2.321482114206
C      1.717747905444     1.918116676113     2.836988041755
O      2.838154604699     1.409486471232     2.576218938147
O      1.604163647390     3.213662777748     3.371744169119
C      2.825528530335     3.959009005538     3.468356089699
H      2.610688481505     4.964753927408     3.888425482595
H      3.551955585538     3.446545024381     4.139049567219
H      3.282674840065     4.097268322710     2.462151913315
Pd    -0.497256617446     1.589151038062     0.498904081991
C     -1.104802639825    -1.324851489874     0.796745613387
O      0.193329573758    -1.368654711493     0.597430989808
O     -1.754094572019    -0.216718377418     0.733694021385
C     -1.848099191436    -2.629745953909     1.147568668937
H     -2.902705864027    -2.460932297089     0.889352030152
C     -1.757280539229    -2.941662498475     2.624238017234
H     -2.380956185772    -3.831668954874     2.849976051162
H     -0.703527481065    -3.179255631867     2.879943598332
H     -2.112399724516    -2.083022779333     3.229828139236
N     -1.334711633507    -3.810424936981     0.445456833621
C     -0.961022115425    -3.721239425018    -0.769333682723
O     -1.099008788636    -2.588532761509    -1.565765425180
C     -0.426779475236    -4.920346911357    -1.426163160531
H     -0.406045266184    -5.751932247474    -0.698716286980
H     -1.092034903658    -5.158004874095    -2.271395907272
H      0.591802041857    -4.687267528289    -1.779000728054
N     -0.441536670494     1.503730285286    -1.583467057119
C     -0.979249459540     2.525427969855    -2.320655944680
C     -0.846911999411     2.534229328319    -3.693062846758
C     -0.180080679918     1.515688712339    -4.336005628379
C      0.348576722982     0.506038117869    -3.577990499448
C      0.193633097205     0.526422165095    -2.173769187955
H     -1.508015512231     3.330143193004    -1.823319078776
H     -1.272462053270     3.343200837243    -4.263250136082
H     -0.076989328076     1.512173966137    -5.417756749929
H      0.868032738271    -0.323019884946    -4.015141354935
O      0.741447414673    -0.495432630494    -1.557573675683
H      0.562621602293    -0.765040930436    -0.445406204784

