# STO-3G

title

0 1
C      1.399072009036     2.835097838396    -1.236876982970
C      2.574401639387     3.566381399928    -0.955900063653
C      2.950166133144     4.650066932582    -1.779172825265
C      2.153608073304     5.014792207076    -2.881253895383
C      0.980984316867     4.285519711833    -3.161516565743
C      0.606679520639     3.196302662322    -2.348017956813
H     -1.573334833851     1.463271980826     3.606281473519
H      3.203933085076     3.302890421938    -0.107614609464
H      3.859186491308     5.205800209270    -1.556433156724
H      2.440648730134     5.852557803696    -3.512637872437
H      0.358688266253     4.556992236721    -4.012303063707
H     -0.293418156275     2.632184730273    -2.585719570028
C      0.791947069736     2.267623636773     1.920688878347
H      0.516764837528     1.366858337834     2.448455147014
H      1.777337439041     2.672429961025     2.129275923060
C     -0.102461630751     3.004539174446     1.154187260868
H      0.191811011024     3.971181336152     0.780360328774
C     -1.511819551213     2.667410684986     0.913429632892
O     -2.314554770484     3.611218289132     0.691828972999
O     -1.784857667333     1.374927666037     0.447967917269
C     -3.162889546062     1.094324193203     0.163742571160
H     -3.263080273569     0.042978439609    -0.182579318715
H     -3.785154244622     1.214461997467     1.079062885642
H     -3.546875775226     1.757824290259    -0.643700896594
Pd     0.919768938444     1.256679883332    -0.094794339649
C     -0.306680846758    -1.276359343647     1.393838673384
O     -1.181687837004    -1.509708505486     0.459786558484
O      0.670345244540    -0.452555696752     1.274607166560
C     -0.388325480756    -2.098995071970     2.709477703138
H      0.390988623721    -2.868919244470     2.622522825409
C     -1.720971607238    -2.796972391599     2.904761475935
H     -1.701569944096    -3.381363344187     3.847980366711
H     -2.526503157535    -2.036745309440     2.966792311842
H     -1.926149929362    -3.483998658252     2.058128269825
N     -0.101845890318    -1.347766364653     3.935789163116
C     -0.561276335928    -0.199831667831     4.210755119946
O     -1.408310668708     0.530578141285     3.370438180777
C     -0.192214194897     0.371094726763     5.517168162764
H     -0.536396792744    -0.335010571159     6.292362102604
H      0.907419672759     0.449170689658     5.543932097255
H     -0.661954847447     1.358482890096     5.659950747160
N      1.312656815028     0.093877021435    -1.766036867099
C      2.520501820314     0.204968289252    -2.401435742667
C      2.709240292370    -0.374630115922    -3.637750044078
C      1.690265027643    -1.069787514049    -4.247646703127
C      0.494356533220    -1.181875837422    -3.591203112688
C      0.328403180173    -0.587553904861    -2.317904125855
H      3.328697495874     0.754863005929    -1.933721666497
H      3.661446682958    -0.272415733114    -4.131395550684
H      1.832925064250    -1.523160479108    -5.224915396459
H     -0.334866433959    -1.716528394091    -4.009074527576
O     -0.838612891948    -0.767034750104    -1.782493592898
H     -1.005079934913    -1.018319356629    -0.613265660224

