# STO-3G

title

0 1
C      0.377061920040     4.170162491401    -0.250628331178
C      1.341084957223     4.996162927376    -0.881287182603
C      0.976867023838     5.870966815775    -1.916957301474
C     -0.366044550668     5.938441405240    -2.336273734264
C     -1.334143947035     5.125063004607    -1.712961124899
C     -0.970783780309     4.247802875002    -0.680425935549
H     -2.837616934745     0.415022608501     0.605422048833
H      2.379068586445     4.948343764623    -0.554270154162
H      1.729078018968     6.497952592629    -2.389243423201
H     -0.655550197982     6.616505587148    -3.135738596019
H     -2.371087931892     5.172854669929    -2.035906510830
H     -1.732169327198     3.622455083982    -0.225503673821
C      0.832282399227     3.299082433912     0.852745238294
H      2.404084138206     1.056291941336     0.848629566409
H      1.841971528741     3.512878964395     1.202921403736
C      0.051195666094     2.412439032249     1.607068009082
H     -0.998153318959     2.282784078922     1.387506684295
C      0.481603533291     1.876574462051     2.907318629837
O      1.715458620943     1.719473267479     3.112215555648
O     -0.475497751292     1.325056505435     3.772478602678
C      0.032669090955     0.771385683933     4.994880232879
H     -0.813921693105     0.395315185746     5.608877163722
H      0.717967903489    -0.082394529574     4.787341729706
H      0.571212178093     1.545080645328     5.588018625803
Pd     1.172286223552     1.233861685767    -0.023975933268
C     -1.508625953874     0.563583746856    -0.731886873235
O     -2.529686013942     1.143698209091    -0.043177072518
O     -0.749087174065     1.233003964251    -1.470472444661
C     -1.357776552484    -0.942650520954    -0.388190514382
H     -0.300017283543    -1.205220115715    -0.456345057959
C     -2.138170047173    -1.818568782092    -1.340746437529
H     -2.003960561884    -2.882477403442    -1.056550489335
H     -3.217924803507    -1.566754333592    -1.271376594937
H     -1.785106078323    -1.667552704903    -2.381828345941
N     -1.979711836832    -1.083280944132     0.937383796087
C     -1.275257407300    -1.358816572726     1.996609237500
O      0.030412945183    -1.544808405721     2.143481999268
C     -2.052574773546    -1.469041852480     3.235207757140
H     -2.823850529037    -2.242695224091     3.079373456023
H     -1.388188316606    -1.746555859972     4.070191988730
H     -2.531273336414    -0.490913362398     3.422102755849
N      2.026831367280    -0.190335585993    -1.204210446469
C      2.483279070582     0.149234214246    -2.448008678939
C      3.160173108632    -0.780365412321    -3.205766120742
C      3.371701787203    -2.055802625227    -2.731275701599
C      2.887632687576    -2.381589566658    -1.491391233384
C      2.193095024958    -1.416657729132    -0.724735973315
H      2.321374788048     1.151553983289    -2.828725852308
H      3.521313673258    -0.504277909308    -4.183519749673
H      3.902574051481    -2.790592998228    -3.331091239467
H      3.006860263817    -3.363433436598    -1.077627139821
O      1.732822620775    -1.825209333195     0.398779208937
H      0.735987456697    -1.567234269314     1.349955049122

