# STO-3G

title

0 1
C     -0.944699056385     2.200429248013    -0.563333312125
C     -1.525980217957     3.377688754252    -0.044758006034
C     -2.091048453959     4.330881678566    -0.916654653553
C     -2.080179717935     4.116715767133    -2.308636601242
C     -1.493741225405     2.946096372416    -2.825360538343
C     -0.917614664314     1.992619453633    -1.958860093340
H      0.434524378124    -2.367465349160     1.639643132161
H     -1.558053110496     3.543277808217     1.029550612835
H     -2.542938829166     5.231713554797    -0.506100753505
H     -2.523741762340     4.848703079291    -2.979678784507
H     -1.480372873569     2.769177523728    -3.899315284472
H     -0.455799563339     1.105355841588    -2.386821077150
C      0.557459022701     0.180295465828     3.131634111583
H      0.273644299943     1.145404748969     3.540336069262
H     -0.203909424342    -0.586837949811     3.208519401433
C      1.783839366798    -0.054858820943     2.585518286119
H      2.049785154519    -1.037899942127     2.215462066936
C      2.863562818441     0.939797469071     2.488313331677
O      2.603170064683     2.161633242526     2.666327882345
O      4.118209727747     0.523027716772     2.012139025937
C      5.110432957402     1.548736391468     1.869452223621
H      6.053934870855     1.096717587502     1.494682511111
H      4.782122456577     2.318942109252     1.136220167086
H      5.321619353900     2.034511949584     2.848971579095
Pd    -0.080821705200     0.983432220489     0.767404802391
C     -1.505391644974    -2.173784968752     1.344655961450
O     -0.144540987582    -2.055829023829     0.907895577346
O     -1.692765058464    -2.589932205768     2.490956295148
C     -2.607239987359    -1.848016299221     0.313149150025
H     -3.243127352747    -2.745299078476     0.322368380578
C     -2.107673480233    -1.641513348745    -1.102586554196
H     -2.976502843518    -1.557848169478    -1.788627963412
H     -1.529780163067    -0.703232508956    -1.157452337015
H     -1.476308665843    -2.496532758212    -1.422277238170
N     -3.479836087711    -0.721192419623     0.652558895539
C     -3.058082588036     0.335452151577     1.265863848458
O     -1.832097674223     0.595903262992     1.752318040153
C     -4.084591002274     1.350271893368     1.553640007543
H     -5.066704918034     0.994549757545     1.189493432352
H     -4.116706392690     1.491343263560     2.646146777027
H     -3.811538009169     2.283729304747     1.038878717985
N      1.648451273723     1.128935730756    -0.351663128921
C      2.220147451563     2.355858633906    -0.571159888738
C      3.300112609387     2.468928098226    -1.423026310906
C      3.811707444630     1.356474523029    -2.055297413168
C      3.216039978996     0.144799224507    -1.820669076225
C      2.112241815046     0.073833039639    -0.948504371695
H      1.827249240289     3.233565091689    -0.070478899107
H      3.741715082376     3.437515918085    -1.592191277407
H      4.663473874287     1.438464596587    -2.725329939498
H      3.563772440882    -0.759391835918    -2.280040919330
O      1.610503958802    -1.145731397001    -0.811860898469
H      0.805132007002    -1.282554858070    -0.221877200447

