# STO-3G

title

0 1
C      0.474897167805     4.250511088725     0.239617811980
C      1.488203892880     4.793782056122    -0.590027667661
C      1.314172972651     6.031685976674    -1.232566385486
C      0.114210503169     6.752928576788    -1.073012398447
C     -0.908975468038     6.219778271187    -0.263922465504
C     -0.732972213423     4.983600511779     0.381972454335
H     -2.873761141847    -2.087397972066     0.722817412783
H      2.414322387036     4.236748346497    -0.713362240577
H      2.110809769021     6.431888577288    -1.856415101303
H     -0.024201891317     7.707769551204    -1.575567736894
H     -1.844256543549     6.763298865347    -0.143699695813
H     -1.536412559039     4.571143780341     0.987649288384
C      0.671718187227     2.951182370444     0.927440609212
H      2.705458529389     1.760267215942     0.513146764668
H     -1.231365912357     1.224396134485     0.062219373962
C      0.205349800723     2.678128201363     2.174054929114
H     -0.349623207173     3.400712497161     2.760073460650
C      0.406169244281     1.371904162270     2.801591338445
O      1.161445029014     0.534727891833     2.220746038701
O     -0.092740888855     1.133239960013     4.093207031356
C      0.078983641067    -0.200037934595     4.592539903923
H     -0.369296634819    -0.271514406099     5.607066336028
H     -0.434972634066    -0.937080131350     3.933882527077
H      1.158980385489    -0.458585664414     4.672830279850
Pd     1.382437564042     1.463409947817    -0.244440908350
C     -1.021341163666    -0.298280423154    -1.229369818727
O     -0.887295063689     1.038406085376    -0.883461120599
O     -1.082880615660    -0.651960863057    -2.409688062756
C     -1.010361889769    -1.261060017900     0.008172793858
H     -0.231633339196    -0.891810097959     0.685507575608
C     -0.681343438363    -2.686647239088    -0.376254949910
H     -0.637501474125    -3.319370085517     0.534092909400
H     -1.471922578701    -3.075747459204    -1.051333304971
H      0.296896856881    -2.728667348691    -0.898254146311
N     -2.298324193919    -1.255922616696     0.728030153761
C     -2.724433723876    -0.163066677978     1.399487736770
O     -2.137301270854     0.952096966392     1.368666603440
C     -3.942180688580    -0.320430181156     2.214192955909
H     -3.753751311164    -1.111510191051     2.958364345553
H     -4.158363841302     0.641446576801     2.711506761484
H     -4.770318560629    -0.601542690953     1.540761482216
N      2.086510389934    -0.079932708992    -1.598934214186
C      1.809069300781    -0.104486551043    -2.941883454806
C      2.395752778593    -1.064243577324    -3.743318144588
C      3.242018932331    -2.010114139175    -3.204419541608
C      3.499416714830    -1.958835610778    -1.857792679665
C      2.886321270384    -0.957171204100    -1.083621642250
H      1.136950247860     0.630434584230    -3.371186937442
H      2.162477521476    -1.084423121347    -4.796081276539
H      3.693014304002    -2.775401402962    -3.830900562940
H      4.147628126696    -2.662752671589    -1.373901172069
O      3.202056856036    -0.982683950915     0.212881301854
H      2.784688291448    -0.186132386582     0.666291981737

