# STO-3G

title

0 1
C      0.001673088110     3.787172475805    -0.221802439540
C      0.739432089689     4.425815044193    -1.251956200998
C      0.302581807291     5.633659830623    -1.824594618875
C     -0.898800349291     6.229584649533    -1.395137050192
C     -1.657370818037     5.602136398934    -0.385722363926
C     -1.215282626689     4.399855776768     0.190060898570
H     -2.768881116772     0.912873479162     0.989552867364
H      1.664626732186     3.960689832206    -1.582114577806
H      0.895673280661     6.105863121744    -2.604566160153
H     -1.242742063801     7.159585887335    -1.841914901250
H     -2.592723549268     6.048408238650    -0.054060740981
H     -1.819662332162     3.928579155422     0.961842665376
C      0.499366908874     2.516966702818     0.378084634583
H      2.768545114715     2.178017155978    -0.098211866009
H     -0.965994671515     1.902705845043    -1.321545565947
C      0.124940584035     2.093409729799     1.622541214073
H     -0.543398335087     2.654179501895     2.268877337492
C      0.671652895297     0.863442879175     2.203228245423
O      1.573416573250     0.242967980112     1.566260989808
O      0.301974759695     0.486107907428     3.503944076463
C      0.774650632106    -0.798158429242     3.936105578033
H      0.399372841936    -1.003861722303     4.961587938239
H      0.395449965152    -1.605847619171     3.267444792943
H      1.887285446835    -0.827012315376     3.959761105036
Pd     1.710054307545     1.206838106193    -0.638395657152
C     -1.235951232210     0.021249013742    -0.833667118503
O     -1.696791942362     1.253936084338    -1.146744985608
O     -0.041090925751    -0.305111218360    -1.009252716324
C     -2.265475289555    -0.833253882011    -0.098259187935
H     -1.808649429781    -1.781789051753     0.194075322249
C     -3.523875849114    -1.089716412404    -0.897733003831
H     -4.214155589048    -1.721656904528    -0.301887578224
H     -4.024082584629    -0.122305694281    -1.113337815955
H     -3.278228352089    -1.606203197486    -1.847748551328
N     -2.616378662930    -0.082078061906     1.111244542687
C     -2.569898656405    -0.681329212302     2.338621101673
O     -2.209777032276    -1.863457223534     2.529279634147
C     -3.009600259836     0.135340750770     3.490824396866
H     -3.874126793700    -0.375997632736     3.944535991488
H     -2.173838214640     0.180688197451     4.206707964614
H     -3.293579233170     1.151480380049     3.166346002278
N      3.114482950584    -0.176170766906    -1.503633641811
C      4.221975334316     0.316443351901    -2.142017349936
C      5.276222489584    -0.520347004707    -2.445248472037
C      5.221448865755    -1.859462587389    -2.121316336969
C      4.097121682854    -2.327524025799    -1.494223535280
C      3.047429086166    -1.433793864565    -1.200717970054
H      4.272182436945     1.367250181800    -2.402863786323
H      6.145713153824    -0.124356413758    -2.945109857024
H      6.045575435679    -2.526620875243    -2.360683295252
H      3.982278933640    -3.357962092022    -1.219960863926
O      1.999827909983    -2.011793604369    -0.609644572339
H      1.233891339311    -1.392356069592    -0.481164528162

