# STO-3G

title

0 1
C     -4.442847310635     0.048473634731    -2.148620236605
C     -4.283605463209    -1.128965071804    -2.909587338224
C     -5.401221585813    -1.736848685699    -3.515754306516
C     -6.682359053550    -1.168134069040    -3.365501691537
C     -6.843690785713     0.010439200233    -2.609549396920
C     -5.724607973184     0.616920483135    -2.003788523326
H     -3.572394263964     0.508791878664    -1.687867049833
H     -3.290384232109    -1.555913858434    -3.020006670605
H     -5.275528452475    -2.645475244955    -4.101072606498
H     -7.545717261129    -1.636788158466    -3.833760044316
H     -7.831620048655     0.452254298461    -2.495291195542
H     -5.849935380798     1.528552842966    -1.422594179841
C     -3.090196922288    -0.958937824477     0.979349850119
H     -3.219800446473    -1.903775729566     1.502951539288
H     -3.123497086758    -0.968398680571    -0.103381106928
C     -3.093055091203     0.253989608599     1.638729898841
H     -3.106767877298     1.168979332556     1.067201899146
C     -3.158412115336     0.413869825021     3.098330379944
O     -2.741355476123    -0.528211406312     3.826048144896
O     -3.394149707854     1.693059433344     3.628440650174
C     -3.306948277091     1.807636777679     5.055419824601
H     -3.526843628608     2.855512978275     5.353517735212
H     -4.048653251664     1.142083398384     5.552684974329
H     -2.282276561484     1.553934152326     5.410107881726
Pd    -0.820674819991    -0.554454556129     1.466818199709
C     -1.165676900715    -3.025288258319    -0.773682812034
O     -1.664645325742    -3.502964470036    -1.738419322656
O     -0.651498343045    -2.636199017551     0.236039916578
C      0.987094185923     0.187048640077     2.368632184575
H      1.920475296761     0.148233205272     1.804651113130
C      0.989127346642    -0.345064898215     3.765079746139
H      1.523511396184     0.368003786362     4.424698999377
H     -0.052319984253    -0.460466975083     4.131889107621
H      1.499365135807    -1.329082310438     3.790124441854
N      0.046256135453     1.159284503139     2.171634964002
C     -0.020567647914     2.362926210032     1.601268918250
O     -0.893035528052     2.737556473280     0.748472412651
C      0.945539849101     3.357699744218     2.100234293708
H      0.798404323674     3.451128668589     3.190307055405
H      1.963040515925     3.001555973361     1.872214584676
H      0.755337942266     4.328664430739     1.606762288120
N     -0.717251405150    -0.677094740605    -2.189666472787
C      0.219656820526    -1.110738905349    -3.088530435757
C      1.239210167124    -0.264337781488    -3.488891477990
C      1.306744368522     1.026094547526    -3.010858053644
C      0.347732730793     1.443862119777    -2.123681235770
C     -0.676524153475     0.533552634460    -1.749994039273
H      0.170805263676    -2.124404504010    -3.469494410599
H      1.971114697083    -0.620621885643    -4.194691384563
H      2.092738965717     1.699903497555    -3.341174103065
H      0.319107062265     2.452294451001    -1.763314086344
O     -1.634589484427     0.997080972833    -0.931616123141
H     -1.384572173132     1.761883923311    -0.289716085316

