# STO-3G

title

0 1
C     -4.149526769926    -0.633122855958    -2.455195453976
C     -4.645702390428    -1.856506640170    -2.950195636264
C     -6.000075638978    -1.971492202318    -3.323830446459
C     -6.860859894119    -0.861435696698    -3.207693088796
C     -6.365497363472     0.364314109398    -2.718082757079
C     -5.011746642986     0.476543324311    -2.343325971669
H     -3.106368863199    -0.529573174267    -2.174433532551
H     -3.978002049810    -2.709706397940    -3.040326824955
H     -6.381771502662    -2.916953441571    -3.704256900585
H     -7.906014369951    -0.949652253255    -3.497656606522
H     -7.028114216485     1.223153697778    -2.631270795527
H     -4.619833443499     1.418843477828    -1.966664148459
C     -3.112772958425    -1.021972929378     0.989048876093
H     -3.166851310465    -1.991380325680     1.480053661275
H     -3.211687327689    -0.990129742251    -0.089198346384
C     -3.138300450610     0.164444662665     1.695272753237
H     -3.230924490087     1.098311770180     1.163162686565
C     -3.131134688280     0.268180061351     3.161462309205
O     -2.617437188697    -0.671926949838     3.827244914765
O     -3.405316472114     1.512634151369     3.752358506075
C     -3.240854452100     1.582476282256     5.175380603367
H     -3.500834203710     2.604944199473     5.525011195870
H     -3.913897685733     0.858422038167     5.688312781203
H     -2.184553599848     1.376276083443     5.461392751921
Pd    -0.844611776588    -0.507336832667     1.398734369352
C     -1.180037316367    -2.923677859788    -0.838257402684
O     -1.764627416663    -3.367745461767    -1.770182865659
O     -0.593055339099    -2.580607105536     0.149316860661
C      0.947840691579     0.363694949707     2.218962707515
H      1.846606568334     0.411754576929     1.601923863083
C      1.074663448188    -0.189823366420     3.601103690725
H      1.589070006743     0.552621182190     4.243961077800
H      0.069112031187    -0.394734182557     4.024587064811
H      1.661599890898    -1.130089548117     3.575410244363
N     -0.080393720433     1.256570681854     2.095955148451
C     -0.279201342990     2.455705096698     1.544083931507
O     -1.222734148310     2.760433077543     0.740775523236
C      0.622506906601     3.525314563455     2.007675730985
H      0.522348167453     3.596375184684     3.104773259808
H      1.653986144749     3.259296891967     1.725842300414
H      0.325825526461     4.480598267654     1.536660242204
N     -0.583039074780    -0.608331009434    -2.135452082759
C      0.481043230783    -0.971970541533    -2.915271420013
C      1.474338616343    -0.051954615577    -3.203073436228
C      1.386178525523     1.242264350634    -2.738926596571
C      0.301986114924     1.587956963155    -1.973008286016
C     -0.686284232940     0.602537862314    -1.707174266272
H      0.552682549025    -1.987782266409    -3.286879958106
H      2.307461345185    -0.352902723336    -3.816530042117
H      2.149848749311     1.974308364791    -2.987796119634
H      0.151074908000     2.594513518190    -1.638663165255
O     -1.768819166910     0.991202225828    -1.010678465729
H     -1.629253723136     1.756221004321    -0.343335957223

