# STO-3G

title

0 1
C      0.223835834970    -3.425502959259     2.564197683979
C     -0.679854191578    -4.439758433234     2.180870650909
C     -1.384905481627    -5.163356876244     3.161871028114
C     -1.186639926773    -4.878400609272     4.528809600350
C     -0.279407851141    -3.872546428715     4.914431320465
C      0.427284163316    -3.147373125889     3.932781059776
H      0.790458231147    -2.869985687818     1.822947966646
H     -0.827746482862    -4.664732268884     1.127460828202
H     -2.081715861295    -5.944215737510     2.865575518566
H     -1.733252748607    -5.437457009624     5.284998370620
H     -0.122411380101    -3.655356637223     5.968481720832
H      1.140699089735    -2.377500945323     4.215486979115
C      0.366614473571    -1.800648580423    -0.726313107718
H      0.726859418929    -1.810297666025    -1.749956938675
H      1.143827975674    -1.796167192999     0.028949779515
C     -0.971506061884    -1.902004799839    -0.398706699109
H     -1.262646404752    -2.035887199927     0.631178424191
C     -2.064046423027    -1.957286507569    -1.380883010761
O     -1.905761540995    -1.379703035087    -2.490656849802
O     -3.321642397540    -2.425573776971    -0.969662731578
C     -4.392569442817    -2.262223712773    -1.909308507868
H     -5.329293712152    -2.670469569016    -1.471775984867
H     -4.559334631729    -1.183898110533    -2.132994227632
H     -4.179788692419    -2.811305906578    -2.854303710273
Pd    -0.348838655327     0.427928753075    -0.724049478866
C     -3.017075481894     0.468277389443     1.466813493272
O     -2.445559932368     0.658059879149     0.434958259330
O     -3.646519091110     0.293745908062     2.459509624034
C      0.527200965207     2.203767659579    -1.518476300630
H      0.723759677227     3.015729395395    -0.812207982458
C     -0.121016292195     2.579373372896    -2.811788390461
H      0.625648947690     3.076639753408    -3.463503246997
H     -0.493492504212     1.666349375906    -3.322525746045
H     -0.968999744905     3.267575023466    -2.621311214640
N      1.351788350182     1.121571457594    -1.653654648786
C      2.620716805867     0.802741958989    -1.305055477470
O      3.011375209406    -0.287634221625    -0.808607208119
C      3.628542963436     1.818905438903    -1.681589399993
H      3.545936575613     1.988062126029    -2.768994545991
H      3.417987326473     2.741403169615    -1.118892202321
H      4.634046081767     1.434920308056    -1.430256556862
N      1.684271226632    -0.368483928438     2.298561108972
C      2.880511259074     0.263147110168     2.086977673618
C      2.908258862423     1.636663365814     1.889625955058
C      1.736782769599     2.366627093611     1.877847314834
C      0.551148839560     1.692981485198     2.030484681687
C      0.597059664256     0.304903173570     2.271600299389
H      3.801746345824    -0.307748804269     2.097515026121
H      3.858375829901     2.128119501040     1.760497601145
H      1.753620051697     3.445239995539     1.746834908518
H     -0.400037466760     2.189348486407     2.074509833890
O     -0.620609902094    -0.265227903533     2.505760149880
H     -0.506721773316    -1.213732579069     2.744679262726

