# STO-3G

title

0 1
C      0.945841081330    -2.895014931834     2.582659189916
C      1.189648623108    -4.227368691304     2.191491022404
C      0.994520762160    -5.284093953435     3.104548941659
C      0.560578048905    -5.009745754691     4.417048041203
C      0.323916265467    -3.677457495387     4.814027225054
C      0.515515190507    -2.622463778114     3.898141149561
H      1.115134263636    -2.086320005043     1.880509320220
H      1.537414386244    -4.434668767623     1.181683192984
H      1.182445198953    -6.311231272147     2.797988921759
H      0.411435826513    -5.824213897631     5.123153094483
H      0.000788888476    -3.464739292657     5.831736493975
H      0.343462142872    -1.589100617360     4.187002189795
C     -1.126265323409    -1.387498627343     0.127907788245
H     -0.623094453922    -2.027611416290    -0.590227852812
H     -0.713129703698    -1.392056212308     1.128261871917
C     -2.296137570363    -0.702159123342    -0.145534347324
H     -2.810325938333    -0.183899485607     0.647618902149
C     -2.946302212649    -0.668170435919    -1.460316394467
O     -2.188242969471    -0.516032105037    -2.456520444076
O     -4.284606444852    -0.252971866401    -1.520896556042
C     -4.853426643453    -0.158301777800    -2.834616346017
H     -5.919454186115     0.146716397478    -2.750843750385
H     -4.323228951155     0.606670733691    -3.445690671883
H     -4.816898482334    -1.142549258285    -3.354685273187
Pd    -0.408641339811     0.625984235399    -0.829698802305
C     -2.901692978859    -2.573807924661     3.252747352876
O     -2.545570352533    -1.446614280258     3.093615995840
O     -3.276755621722    -3.690607354814     3.404598338403
C      1.234326058288     1.404933497576    -1.978268436143
H      1.750906007928     2.287923240880    -1.596150845495
C      0.567447325060     1.495343209858    -3.315473563178
H      1.327280497886     1.751400186041    -4.081083710349
H      0.106418341949     0.520943486413    -3.589989569373
H     -0.215358312250     2.279330918505    -3.293998994224
N      1.501393004026     0.132062882101    -1.606732663503
C      2.458670621900    -0.458223324634    -0.843845131061
O      2.257284582622    -1.214390980037     0.138370972389
C      3.839425500639    -0.266009540471    -1.336564733749
H      3.879500192788    -0.636680693757    -2.375389908690
H      4.081063610308     0.806879622593    -1.289356160452
H      4.530432209118    -0.847137249871    -0.698335470882
N      0.555978057154     0.507496008407     2.557883787976
C      1.892948478178     0.732257463146     2.370485610557
C      2.309990864318     1.872539771015     1.696761680153
C      1.389096626807     2.784474065656     1.223181461789
C      0.054473988289     2.494033182574     1.364875235998
C     -0.301995592566     1.333345447909     2.085454634417
H      2.618814238646     0.028346587006     2.761779998695
H      3.366511423747     2.058472153684     1.592239208858
H      1.713505758077     3.704203849948     0.743345808464
H     -0.721066533644     3.176988328417     1.076225436301
O     -1.638292679992     1.164602926139     2.254932633850
H     -1.818718942159     0.313792898110     2.712686079337

