# STO-3G

title

0 1
C      2.588001856352    -2.572494638779    -0.215235154601
C      2.744637140289    -2.762060105646    -1.602796523590
C      3.762643869199    -3.603912596904    -2.094190857465
C      4.627769757007    -4.261058076959    -1.196684916515
C      4.470265416068    -4.078508997052     0.192258163163
C      3.451491731847    -3.236100777035     0.680286809759
H      1.807906730833    -1.927514600191     0.178338409670
H      2.072975035998    -2.260723182146    -2.297626465248
H      3.879258007104    -3.748314540985    -3.166233110078
H      5.413196710005    -4.911750961733    -1.575135196438
H      5.132470939750    -4.590362910081     0.887193561120
H      3.320295572654    -3.099351658129     1.751677405570
C      1.835642841282     0.998646331228    -0.907908940158
H      1.562560418430     1.414819545680    -1.873495353700
H      2.428708860420     0.090928538148    -0.913846887035
C      1.652593842155     1.685700654095     0.286372155852
H      2.063800104879     1.275972399174     1.197875905954
C      1.038255249359     3.016988187431     0.383353518447
O      0.212032250633     3.345547037057    -0.511617918653
O      1.039965076313     3.665290974677     1.627618755756
C      0.358428121580     4.926234044424     1.682442032605
H      0.452379303265     5.348207819650     2.706791783087
H      0.809266223883     5.651577849998     0.967703100125
H     -0.724995694637     4.803887787914     1.457182680836
Pd    -0.156194579415     0.297863755758    -0.041760783024
C      4.819796168581    -0.144990954255     1.714989180897
O      4.385784525921     0.315276128003     0.706656272905
O      5.283232611322    -0.578717820346     2.726671587970
C     -1.976159441770     0.482870440711    -1.178310120991
H     -1.943435315857     0.237594176949    -2.239936747535
C     -2.661197049023     1.747312611601    -0.772569362328
H     -3.751751978792     1.641651500857    -0.941472726706
H     -2.478101522529     1.956558663061     0.301375707027
H     -2.273243554205     2.591311289968    -1.378578772232
N     -1.998569609696    -0.472193620472    -0.202024696646
C     -2.422046887714    -1.568553780175     0.372648039203
O     -1.751075906994    -2.206198654651     1.270533832761
C     -3.753715133012    -2.061637608926    -0.007406048274
H     -4.488056369715    -1.270464304375     0.220489649692
H     -3.740077782007    -2.284307420999    -1.087120753450
H     -3.979806791324    -2.976138060004     0.571407056406
N      2.088474909309    -0.264816058693     3.046243844657
C      2.615187856661    -0.052779652788     4.292781609462
C      1.941853295352    -0.500872695343     5.416094982111
C      0.748906407389    -1.177607168419     5.293262714619
C      0.239825295183    -1.377852087122     4.035892545989
C      0.971273308074    -0.890676005142     2.920424175329
H      3.551665891512     0.481299102777     4.400103861948
H      2.371905726845    -0.329586408874     6.388653291407
H      0.224913262654    -1.543082566531     6.172234844720
H     -0.679705107661    -1.906369400520     3.886349186547
O      0.428546798348    -1.114402986732     1.707918092545
H     -0.489288091728    -1.665768086335     1.604606004667

