# STO-3G

title

0 1
C     -3.868923634984    -0.204765655552    -1.879887740458
C     -4.294085685053     1.064588405378    -1.435963606533
C     -5.668782030095     1.366758919518    -1.387763830571
C     -6.619612249068     0.405576983865    -1.787647781325
C     -6.193944563485    -0.860679255639    -2.235772268165
C     -4.818106840732    -1.165049080639    -2.280912136229
H     -2.808405285114    -0.435187091156    -1.898748049661
H     -3.553314327183     1.800267940511    -1.132370759724
H     -5.996539155070     2.343648960895    -1.038383151020
H     -7.681405113673     0.640576264792    -1.749918009339
H     -6.926782539767    -1.603458722274    -2.544767625071
H     -4.489875325331    -2.144963362821    -2.622864375289
C     -1.041912871981    -1.557177343759     0.026132623363
H     -1.223410801904    -2.600806894079     0.272874440196
H     -0.409329378139    -1.349299676843    -0.832619542217
C     -1.818947726065    -0.526539059121     0.545977985316
H     -1.750731143872     0.459143529014     0.113788619192
C     -2.883861318734    -0.704125389711     1.543972005309
O     -2.827924472625    -1.708401875710     2.305202541291
O     -3.729743884499     0.378762292393     1.830645029139
C     -4.724749393255     0.148508494065     2.836447352612
H     -5.341422791671     1.065049309797     2.956802054694
H     -5.399855401200    -0.686025234781     2.539744639179
H     -4.250814747488    -0.083073579686     3.817005171330
Pd     0.077671436025    -0.764873454526     1.868793013194
C      2.107771174389    -2.353152772197    -0.126297665071
O      2.222897687067    -2.429022198181    -1.306517892141
O      1.984558459635    -2.285511155580     1.062205340423
C      0.541469005508     0.269231560824     3.744718320457
H      1.575892921695     0.555638312745     3.940880946672
C     -0.172871309504    -0.570631582310     4.754574835417
H     -0.427357833122     0.058710485952     5.631063393459
H     -1.112598311534    -0.976652698400     4.324733932258
H      0.479876292069    -1.407251940618     5.075625372136
N     -0.296041867738     0.968556560016     2.942125990487
C     -0.282155751603     2.173145975535     2.338519971141
O     -0.370059596347     2.373284006001     1.094283509060
C     -0.294461310937     3.330312783933     3.251962724549
H     -1.185148529493     3.238346380559     3.897225855736
H      0.629066628261     3.309646719231     3.852194949522
H     -0.348675492832     4.260061793007     2.656064126148
N     -1.007186342632     1.554694758444    -2.285256417757
C     -1.520612889189     1.545166832570    -3.555002602240
C     -0.846886456978     0.886060634608    -4.568241681606
C      0.348082101966     0.244720798774    -4.311583144223
C      0.847815733527     0.290818986534    -3.036570579786
C      0.120956912931     0.984734553770    -2.045495249080
H     -2.465159129060     2.036325422773    -3.757927528545
H     -1.265953762397     0.870820262556    -5.560349828006
H      0.878881466629    -0.284008307607    -5.098697013282
H      1.764807002472    -0.196122953022    -2.761832042531
O      0.696043135330     0.953955368368    -0.829362738746
H      0.218171266616     1.505471204274    -0.126972538221

