# STO-3G

title

0 1
C      1.356380560045     2.612177569379    -1.207535091532
C      2.707193774602     2.511450917997    -0.811041259971
C      3.681447481239     3.234864141085    -1.532398405774
C      3.314072931643     4.043855550159    -2.625912606384
C      1.961911919473     4.133279600362    -3.008885230361
C      0.974560483400     3.413761567904    -2.300974820468
H     -2.073993407723    -0.080562411122    -0.296098132018
H      2.998476321684     1.879831546818     0.028482581172
H      4.724612928221     3.163306830095    -1.231624153116
H      4.072261160754     4.600588932561    -3.172174436395
H      1.670485846334     4.757336237574    -3.851749583777
H     -0.067798425586     3.483933236742    -2.609024144824
C      0.381126375122     2.716620926748     1.645644243417
H      0.140811128145     2.059686578418     2.475312480939
H      1.429650551542     2.962510109004     1.539262488555
C     -0.613840619085     3.375915068730     0.922830005712
H     -0.340933742377     4.140965446354     0.211734104606
C     -2.054158552119     3.292206477752     1.230452542380
O     -2.858617809126     3.941761778579     0.513332325043
O     -2.484165133692     2.612976567756     2.385686184633
C     -3.903223584277     2.449805500979     2.513867577614
H     -4.128611025742     1.894408809069     3.448809495336
H     -4.414685434867     3.438005275829     2.564093856119
H     -4.308948262915     1.864935282688     1.656044457849
Pd     0.016272402242     1.511511329162    -0.217433455663
C      2.661919701085    -0.227116514412     2.799035025735
O      2.568567345030     0.470617672518     1.689773034387
O      3.602289283652    -0.322860575722     3.625913001708
C      1.311693379640    -1.071656647560     3.095005127691
H      0.986821431417    -0.883048658433     4.123747309897
C      1.513345328189    -2.551553991714     2.869356426274
H      0.576552937153    -3.101599795385     3.087283845777
H      1.802339595002    -2.735311954435     1.813118676918
H      2.315708287439    -2.928836801682     3.537553318131
N      0.381867697759    -0.560306498848     2.081186047125
C     -0.908623240601    -0.440704284685     1.945472353077
O     -1.424919954977     0.284549096305     0.989483002497
C     -1.812298646521    -1.097750561136     2.898256778306
H     -1.655287543084    -2.186474569033     2.830856785849
H     -1.595210430905    -0.715057384307     3.908578668189
H     -2.854213915992    -0.854420841547     2.617083029923
N     -0.059573654472     0.090454275051    -1.805476914220
C      0.988944114181    -0.093797364501    -2.671983573347
C      0.822618912676    -0.847055440791    -3.816888843950
C     -0.393127929930    -1.425779556871    -4.103201641831
C     -1.417867906002    -1.251767882771    -3.214088625774
C     -1.206249539343    -0.485168078557    -2.046874831332
H      1.957225063855     0.341331029245    -2.462117003603
H      1.652948317673    -0.975956900263    -4.491320535959
H     -0.532164857802    -2.015075846902    -5.005482007010
H     -2.386322018399    -1.685081744659    -3.361320068643
O     -2.259306241235    -0.416630984778    -1.250358129392
H      1.027076970141    -0.004661894109     1.438068775952

