# STO-3G

title

0 1
C      1.773319134543     2.532412075054    -0.851633554114
C      3.149494683401     2.486424560102    -0.560916440829
C      4.041555087650     3.266535344380    -1.325209716742
C      3.567636301398     4.076631966953    -2.375818129777
C      2.190622281776     4.104135627106    -2.665942521681
C      1.286580901462     3.334225177627    -1.902979444034
H     -1.875551981954     0.302769097475    -0.056337953599
H      3.517785466523     1.823849850031     0.215297599961
H      5.106331291049     3.229373189200    -1.103465038250
H      4.261635318478     4.674458563548    -2.962522419837
H      1.813062524218     4.721204474941    -3.479387063204
H      0.225549012219     3.358674213323    -2.144015087096
C      0.443132758635     2.738030848741     1.821861225258
H      0.155707207340     2.174444883018     2.707545428154
H      1.392349125371     3.259572273316     1.876662844778
C     -0.540841531862     3.145663025053     0.872106190300
H     -0.276723154992     3.918711670271     0.167285772734
C     -1.996645150609     2.957041864796     1.029199507417
O     -2.760119694527     3.609236980476     0.269235994269
O     -2.493801790075     2.334069286478     2.189978192433
C     -3.909158682174     2.102675478964     2.198965408518
H     -4.193308865911     1.581280181048     3.136925939444
H     -4.468969331690     3.064353161283     2.151333837427
H     -4.205603032828     1.460771733685     1.336625412280
Pd     0.548903005086     1.358883998092     0.187419151636
C      1.780831991946    -1.200146131320     1.063740306017
O      1.577289803244    -2.381048970526     0.670884510745
O      2.243579703828    -0.181880725002     0.383557815253
C      1.389720669820    -0.846287741271     2.572239513639
H      1.456072940764     0.237933213002     2.697540951888
C      2.304455241888    -1.520147537351     3.571144060624
H      1.988149508567    -1.273934793653     4.606132686998
H      2.277834619959    -2.620808229692     3.422863896167
H      3.346401594815    -1.167888350236     3.420991285874
N      0.009112271385    -1.282606427371     2.840741283556
C     -1.026319766450    -0.827367014882     2.147209813623
O     -0.964026417864     0.091696345960     1.264918185079
C     -2.335782593675    -1.444513037822     2.421249946487
H     -2.272665389621    -2.520388819175     2.182131768648
H     -2.596701025795    -1.268188857208     3.477664764955
H     -3.091060085568    -0.972961788703     1.762902488927
N     -0.013037046288     0.260496196936    -1.644395811216
C      0.948384982453    -0.054830897070    -2.567845554230
C      0.579353086824    -0.576335587676    -3.794783253707
C     -0.749855192545    -0.802077303635    -4.086334139239
C     -1.685318851223    -0.509002317413    -3.128610482537
C     -1.256525887674     0.011607249738    -1.888668926846
H      1.993897860860     0.126227998729    -2.348194348586
H      1.340526951346    -0.809497296022    -4.519577843215
H     -1.046936211143    -1.213687024349    -5.046720173778
H     -2.732262167368    -0.678422112599    -3.269865455269
O     -2.232664859058     0.214756495387    -0.993516928961
H     -0.150965905708    -2.077637877785     3.441750708402

