# STO-3G

title

0 1
C     -0.227566735256     1.643623714933    -1.200277879884
C     -0.006367161143     2.909043612297    -0.616848971453
C     -0.520976978673     4.070968480609    -1.228815861932
C     -1.253922544684     3.979406324064    -2.427716697000
C     -1.470783666441     2.718188555988    -3.016149993456
C     -0.954457216582     1.552962512767    -2.410160136319
H     -0.628808547747    -0.114832249368     1.830935628503
H      0.542911612870     3.001453410331     0.317911717564
H     -0.352275226582     5.039850658178    -0.763258787698
H     -1.651834357350     4.877259007826    -2.895237215422
H     -2.036555795363     2.638640626407    -3.942688831590
H     -1.122997592285     0.587138147209    -2.884245878273
C      1.738090466596     0.696300692566     2.448717683521
H      2.013521320663     1.478110765109     1.743807361592
H      2.216648854773    -0.265197206930     2.294717340613
C      0.859697811898     0.888636083325     3.462437841072
H      0.628898917000     0.072767125125     4.136666982343
C      0.183117949330     2.162436806562     3.752458635116
O     -0.504946075906     2.252847594780     4.805427480524
O      0.507623659480     3.305894545545     2.995328955596
C     -0.316093968899     4.454361372005     3.234285176947
H      0.008196150550     5.284440199837     2.572331391597
H     -1.382081041778     4.222724576340     3.005498902373
H     -0.228043511179     4.793265999215     4.291241927506
Pd     0.407068900119    -0.028009682439    -0.315680003674
C     -0.250085114029    -2.516689520321     1.314472517571
O      0.794235863139    -1.857432328256     0.804741332082
O     -0.222330766369    -3.581291512474     1.954255506311
C     -1.600908437845    -1.777278819572     1.004571488998
H     -2.334061590855    -2.068434160215     1.765756798853
C     -2.098431127605    -2.155325389006    -0.378348495210
H     -3.163484059539    -1.887947213991    -0.505367836548
H     -1.491257060563    -1.652184154976    -1.155941189605
H     -2.021812804362    -3.254625264866    -0.519841342761
N     -1.295843256547    -0.297805022242     1.061429473896
C     -2.243356500085     0.756316126735     1.115238329509
O     -2.032314667458     1.760193343082     1.807054816074
C     -3.453475079153     0.682020272259     0.276837587102
H     -3.145702582247     0.528216469118    -0.769046817598
H     -4.092023144280    -0.128217648958     0.661072832540
H     -3.992929036364     1.643928240557     0.361669799282
N      2.303526397679     0.037468062909    -1.209836785763
C      2.598247460035     0.885313285590    -2.250782279109
C      3.891433542355     1.000966517646    -2.714690107733
C      4.908528848078     0.272659801539    -2.146548011910
C      4.598582121546    -0.578040928025    -1.122833528767
C      3.264209363625    -0.683935938781    -0.673489931456
H      1.824321901266     1.466229041643    -2.730987751104
H      4.103898343108     1.675019315120    -3.528797476188
H      5.930129468545     0.365004494901    -2.506066976731
H      5.345267048921    -1.180643374106    -0.643609889936
O      3.120618929071    -1.545755944994     0.303299054791
H      2.146461283634    -1.816491955752     0.621268885742

