# STO-3G

title

0 1
C     -0.171068534317     2.081991510161    -1.846152234065
C      0.491357836088     3.292619908442    -1.532015052282
C      0.318288484306     4.432658109844    -2.344784298493
C     -0.503525664799     4.373181261085    -3.486300708990
C     -1.157290701866     3.168543264577    -3.807228830040
C     -0.992161553012     2.027281276121    -2.994789623818
H     -2.074877035467     1.626221702715     0.190661493750
H      1.141864172190     3.364149070535    -0.663527840064
H      0.826073821646     5.359542757696    -2.084024842882
H     -0.634372898043     5.252044203652    -4.113559155681
H     -1.800546807546     3.112187914837    -4.683018558092
H     -1.520587394892     1.115558669695    -3.261177969120
C      1.421998480338     1.959619354253     1.806724504244
H      0.526349967046     2.577262293000     1.858660376661
H      1.941250020372     1.958812065630     0.852994933701
C      1.891839132509     1.220447248233     2.837919483620
H      2.781017270610     0.621097623691     2.698979852740
C      1.255427468826     1.111870078344     4.159175772227
O      1.868732564646     0.522098438200     5.087106466955
O     -0.026611776239     1.660276303106     4.358493937211
C     -0.632635082468     1.377623974772     5.627303597095
H     -1.636552433514     1.851346453059     5.671852848976
H     -0.758520973859     0.278942658526     5.766278429712
H     -0.017107595820     1.786745471498     6.460582136247
Pd     0.090903490207     0.483158937802    -0.656785000373
C     -0.627431534786    -0.891313944672     1.924283914863
O      0.224185164231    -1.020055768257     0.900557716698
O     -0.542183850917    -1.469781971152     3.022209713506
C     -1.755486437028     0.163168285762     1.665470307123
H     -1.443128612247     1.051361921330     2.226730321848
C     -3.115233386951    -0.262796566305     2.183492830512
H     -3.868373621071     0.517644119477     1.945339913391
H     -3.424124468290    -1.222830048452     1.726924724085
H     -3.073485657923    -0.391461823321     3.285670645622
N     -1.864797346760     0.624283199750     0.232156410059
C     -2.637640056078    -0.016770862264    -0.781319515296
O     -3.362199843730     0.633157350565    -1.545950033156
C     -2.511345586080    -1.476170631645    -0.964553381075
H     -1.813946918323    -1.921584251676    -0.242877685570
H     -3.518479623005    -1.910586363850    -0.842418864193
H     -2.156508843400    -1.658346637419    -1.994176246339
N      2.029188553496     0.160995205266    -1.378931857702
C      2.436619942836     0.629912574191    -2.604439729227
C      3.755626068292     0.517838948575    -2.990187047151
C      4.681684639383    -0.071922237725    -2.162845433658
C      4.254196132609    -0.560192132544    -0.959224901794
C      2.895372987324    -0.443993243405    -0.595876870671
H      1.730291416031     1.083854391610    -3.286335342169
H      4.059720445577     0.898226873900    -3.952137356204
H      5.722698372722    -0.159793029102    -2.462983853944
H      4.922267163289    -1.050090180349    -0.277927606173
O      2.618853649169    -0.979784711371     0.565496378323
H      1.593927561999    -1.074731549905     0.846649899611

