# STO-3G

title

0 1
C      1.785904702259     1.964022534878    -0.330070151399
C      2.990576256897     2.203696042763     0.367850306087
C      3.534832234467     3.504328875390     0.420724651056
C      2.884683454651     4.575448758268    -0.222161448055
C      1.686039839820     4.340487188374    -0.923466505352
C      1.141235878399     3.040556917587    -0.983992129802
H     -0.649128297553     0.153144728849     1.438192121619
H      3.500225585860     1.394430030321     0.887456449092
H      4.459750412415     3.675501949619     0.967889672747
H      3.305475110127     5.577453753659    -0.177603406834
H      1.176543596914     5.161593338814    -1.424952112636
H      0.222378286315     2.875708887386    -1.545033437064
C     -2.113597687646     0.854661633649    -0.360707990474
H     -1.946587446037     1.929473488838    -0.371991723477
H     -1.738656105742     0.301917735330    -1.217500717041
C     -2.741720084057     0.205887810185     0.651566587002
H     -2.862531203736    -0.868982170463     0.600893527710
C     -3.301671989885     0.856736202630     1.846314388716
O     -3.816162435285     0.138103358791     2.743339350282
O     -3.134604287856     2.243185888371     2.028760526553
C     -3.682733222124     2.785772941639     3.238439815857
H     -3.495836284118     3.880784808531     3.269651663097
H     -4.783185305331     2.619612559428     3.283032529639
H     -3.204223255554     2.325157989724     4.132471602457
Pd     1.001400374451     0.121231038722    -0.407747503025
C     -0.110356701452    -2.450070100004     0.755004553851
O     -0.010205551725    -1.765253807503    -0.389720832763
O     -0.529304462414    -3.615307389665     0.867083503996
C      0.385882887406    -1.615015695146     1.982398415109
H      1.435941244470    -1.863270252502     2.170733537297
C     -0.421564511479    -1.902044000331     3.234993805264
H     -0.008048421997    -1.337635295975     4.095801554142
H     -1.478524088875    -1.601262209168     3.079055112893
H     -0.383400575678    -2.985182684796     3.474894056364
N      0.302247816702    -0.140699680887     1.691414421412
C      1.015721707150     0.731812406589     2.538861377772
O      2.083346147254     0.437988854834     3.089293227124
C      0.394067455901     2.051502312654     2.773178188500
H      1.075289862789     2.656825435642     3.397150381646
H      0.222804195593     2.546939673672     1.805149373965
H     -0.564703321195     1.890915371869     3.294907434892
N      1.278280245657     0.052861452136    -2.470498839873
C      2.282842314970     0.746200207477    -3.099056558670
C      2.321876104663     0.817054116074    -4.475747844923
C      1.366597837985     0.185722894105    -5.238123566441
C      0.393507307306    -0.529327623439    -4.594678493085
C      0.390340180857    -0.598548483740    -3.185076663666
H      3.053504243412     1.241837368219    -2.521973743237
H      3.111228242620     1.373281975941    -4.955024733662
H      1.393212195798     0.240395677238    -6.323349172657
H     -0.363461637686    -1.066880608882    -5.131314234334
O     -0.566993558796    -1.350987846650    -2.692206615959
H     -0.443520409449    -1.679618304637    -1.685182596066

