# STO-3G

title

0 1
C     -0.124454692143     2.251492882848    -0.377696835466
C      0.789037581826     2.814983552913    -1.305180178322
C      1.246867241165     4.142321621635    -1.145670852511
C      0.810314681409     4.907009233300    -0.048845748665
C     -0.084498043986     4.345585280415     0.886138158814
C     -0.547376642327     3.024270923065     0.727037849572
H      1.745512475727     1.245181384109     0.040217066812
H      1.148207529903     2.238928849183    -2.162541111204
H      1.944347043896     4.561702986022    -1.866775099832
H      1.165974839874     5.926085830814     0.080950966029
H     -0.421398572420     4.934713919104     1.736454420625
H     -1.240387878060     2.607659189920     1.454150552658
C      1.190853724209    -2.280199880821    -1.036201157252
H      2.270394772627    -2.384640346652    -0.954794843578
H      0.821451704155    -1.674446528787    -1.859646232628
C      0.319957032471    -2.835843093224    -0.165205267158
H     -0.733600105285    -2.657443774297    -0.308047462040
C      0.680726872939    -3.648588586783     1.007271138634
O      1.883982143451    -3.952706660010     1.229789104713
O     -0.339747811241    -4.001499831536     1.910335854484
C      0.075825935247    -4.753273422895     3.059326627596
H     -0.808244551876    -4.980559743716     3.692838240619
H      0.540438139990    -5.718415587524     2.753320454872
H      0.803235701421    -4.171523092045     3.670295858477
Pd    -0.886597504093     0.521507079843    -1.005662896332
C     -3.033528292185    -1.365262464576    -1.149348464306
O     -1.911762453021    -1.103050718859    -1.822255745024
O     -3.952125624672    -2.136464609868    -1.494596349139
C     -3.147225904490    -0.591354232991     0.232984173438
H     -3.677656107333    -1.260285840683     0.923093629835
C     -3.932323414434     0.693277546879     0.101002581561
H     -3.999666013835     1.191868006627     1.090081620599
H     -3.429486684658     1.379536972682    -0.609949018227
H     -4.957960511153     0.475786568870    -0.264842103804
N     -1.778927201410    -0.218289883955     0.674928091612
C     -1.197984880058    -0.531208918970     1.793878386761
O      0.074942114572    -0.335714484060     2.089163182823
C     -1.962067335333    -1.165598186184     2.884017373033
H     -2.823114731506    -0.522586466225     3.133010314675
H     -2.276736679862    -2.169897441260     2.551593910292
H     -1.314699705820    -1.274299773351     3.774859274778
N      3.851328412404     0.245823913788    -0.672087396857
C      5.027612113778    -0.397929759263    -0.946844025054
C      5.456481634198    -1.432971308505    -0.131177843768
C      4.711414400264    -1.808339408438     0.970899966736
C      3.552811988219    -1.123777750291     1.233427361455
C      3.167960280412    -0.095733940791     0.348589782001
H      5.612106761513    -0.106158712367    -1.811366452404
H      6.374421853932    -1.946625466278    -0.361959981213
H      5.032557929079    -2.625118237926     1.611616468468
H      2.920383352126    -1.366763731896     2.061917556115
O      1.985471995386     0.509912735645     0.656771757664
H      0.759784383549    -0.009857112901     1.403574716571

