# STO-3G

title

0 1
C      0.459675315968     4.102612116659    -0.383716841211
C      1.508578096717     4.945915575191    -0.829084324980
C      1.355501893615     5.752185952201    -1.968461588885
C      0.142604241809     5.729056522815    -2.684179883336
C     -0.906690900815     4.893912825745    -2.249280609303
C     -0.756650551284     4.085129313240    -1.111374506754
H     -1.203080003698    -2.439961060988    -0.487275426504
H      2.447020858120     4.967446023415    -0.276396418684
H      2.170503476482     6.393918534252    -2.294761070469
H      0.016527727913     6.351155575267    -3.567484277189
H     -1.843614216675     4.869851821616    -2.800843099225
H     -1.570378094799     3.434638853733    -0.806410997038
C      0.686338804859     3.317675305943     0.850795611950
H      2.240812421223     1.367299963814     1.168288552419
H      1.623796992590     3.555432829084     1.350767898481
C     -0.249550244104     2.528082074533     1.542444136651
H     -1.255955075199     2.425963710619     1.170870293218
C     -0.059015519544     2.083521911429     2.930498501363
O      1.109222577793     1.791881517071     3.313697629830
O     -1.164745233973     1.986396276684     3.790254366712
C     -0.916144958010     1.383116590505     5.066207962022
H     -1.862675830593     1.357085966011     5.647600676096
H     -0.560373164223     0.335446815967     4.939932933183
H     -0.166905823766     1.969401078013     5.644252772143
Pd     1.046521168512     1.168172678720     0.243988761857
C     -2.046187302276     0.603329244784    -0.506100384360
O     -2.721160010062     1.621781392679    -0.259304596595
O     -0.777958106013     0.652633804742    -0.962588161279
C     -2.594724076312    -0.850510782082    -0.342689355564
H     -2.872554170097    -1.206193558548    -1.344470618553
C     -3.813619205007    -0.926383327803     0.551543255248
H     -4.137713735790    -1.982627876296     0.651511234825
H     -3.569204302671    -0.525026219129     1.556789513213
H     -4.642443286073    -0.329839416364     0.117394851230
N     -1.565615949564    -1.760515855122     0.171206277019
C     -0.840832765458    -1.497275685981     1.291740115261
O     -1.007957684520    -0.496265114504     2.028182257072
C      0.194945827529    -2.493845711247     1.633630034250
H      0.691092179090    -2.187307503136     2.570981842377
H     -0.313625870350    -3.463910728376     1.766562682855
H      0.918801489103    -2.550811997572     0.803389115738
N      2.248508412028    -0.227150521330    -0.808710260948
C      3.606465717652    -0.216871184546    -0.613913611183
C      4.408001159522    -1.148564222503    -1.237152499713
C      3.862866783486    -2.095144197027    -2.074049125383
C      2.509463651224    -2.080911589578    -2.270144294885
C      1.715694801090    -1.109912328525    -1.621650024792
H      4.059753462419     0.521252062017     0.036346148619
H      5.473522881195    -1.130992865459    -1.071599018970
H      4.490921007273    -2.830565228196    -2.570432122873
H      2.020889580366    -2.782738977525    -2.917590442045
O      0.439860300914    -1.184832675794    -1.894162087438
H     -0.211294872671    -0.348639038441    -1.473875953402

