# STO-3G

title

0 1
C     -0.227440130635     1.476613990413    -1.400485755658
C     -0.244731519733     2.881763524864    -1.515119092224
C     -0.161849150589     3.478131925276    -2.791610984372
C     -0.054952179323     2.678570690863    -3.945773426076
C     -0.027156041699     1.275692682111    -3.822558567551
C     -0.104139574507     0.669695751933    -2.550860606183
H     -2.150723920666     1.411621026865     1.894163675318
H     -0.337425708977     3.516503599624    -0.636260172437
H     -0.181801183951     4.562705990972    -2.876674812777
H      0.009800257576     3.142010157091    -4.927540044461
H      0.059106909804     0.650418847411    -4.709120138708
H     -0.069656150919    -0.413986271836    -2.466845781201
C      0.586039117054     2.636489565034     2.404136119144
H      1.245885409004     3.330478254764     1.887826436279
H     -0.473434948862     2.873300986147     2.339309555178
C      1.032780515259     1.565738571826     3.105139190022
H      0.330050338896     0.885123215980     3.564800867023
C      2.451002185713     1.204252780004     3.259944585584
O      2.755173968143     0.204677292306     3.962992160529
O      3.438396752907     1.950597144608     2.586311241946
C      4.789652867899     1.506920654918     2.772900600759
H      5.476489394808     2.162574177316     2.196573674440
H      5.077311717518     1.559205372917     3.847571118292
H      4.915575024562     0.461754853432     2.408741962063
Pd    -0.418444805865     0.667347923313     0.406211322861
C     -2.056951217282    -0.940181634714     1.552405256091
O     -1.812080133363    -2.113131392724     1.084194516385
O     -1.331663362848    -0.331715205502     2.446286522801
C     -3.195118222024    -0.045060242589     0.909376905206
H     -4.100740191639    -0.061980212870     1.532094064162
C     -3.517176121218    -0.466676221796    -0.508775493147
H     -4.423981095214     0.049054410134    -0.875054350018
H     -2.662209834021    -0.251682703493    -1.180095149814
H     -3.731376845114    -1.555794421027    -0.540374140774
N     -2.536474535866     1.312167959467     0.939965503406
C     -2.920377492249     2.577641483729     0.477475264687
O     -2.478948127057     3.604517887610     1.022800724614
C     -3.769137349601     2.691317082516    -0.720912103891
H     -3.273785753380     2.164865649212    -1.553529059614
H     -4.760520818220     2.277049511988    -0.481782630729
H     -3.872522838692     3.762379602734    -0.975688098353
N      1.383390626823    -0.283471823583     0.198478707862
C      2.457720446164     0.496961922929    -0.143136840972
C      3.703253345507    -0.069391875217    -0.303227554776
C      3.887306124631    -1.417670973070    -0.108014721090
C      2.803730181747    -2.176889909152     0.239962789360
C      1.534338346938    -1.573883383990     0.393442089946
H      2.330896928213     1.564151323169    -0.282891270044
H      4.537606065144     0.556809312002    -0.572048016216
H      4.869207926962    -1.868663951165    -0.223547950464
H      2.887576170614    -3.231039855069     0.416817578197
O      0.609453195330    -2.428469980588     0.726311962985
H     -0.427663340558    -2.269158709765     0.936933371943

