# STO-3G

title

0 1
C      2.979482499794    -1.220444166885     0.558138049525
C      3.708869635599    -0.606040303843    -0.480700231251
C      5.013169607178    -1.047854275225    -0.776126888070
C      5.587975524908    -2.100588870753    -0.036678065939
C      4.857032182635    -2.714920690947     0.999660792070
C      3.551810387418    -2.274681459665     1.297380176699
H      1.977137283942    -0.859783900312     0.787202693436
H      3.265789988213     0.209482092656    -1.047206175442
H      5.571493077123    -0.575822476198    -1.581187437039
H      6.593981676750    -2.442990401915    -0.269479632438
H      5.298642754509    -3.531329733346     1.567063577617
H      2.992979799886    -2.757718109263     2.096273909088
C      0.182087546410     2.577197027736     1.377926257198
H      0.355870419987     3.034767679072     0.408756133722
H     -0.795103935950     2.728012756172     1.830308391189
C      1.203482062314     1.955524765880     2.088380164855
H      0.994732209508     1.605448867715     3.088799813345
C      2.628820451942     1.963679949794     1.716832091903
O      3.011691888451     2.586276641115     0.693135964620
O      3.537309280513     1.327369621297     2.582614112187
C      4.915893294644     1.248819916541     2.175798192603
H      5.237513726336     0.184492969117     2.173884155675
H      5.119834654274     1.655768611926     1.159169204273
H      5.548063060819     1.799758909279     2.904140402931
Pd    -0.106217436274     0.420156938415     0.804512337190
C      0.574081297324    -0.021860790180    -1.940002423332
O      0.681556657187     0.932261703599    -0.980513945755
O      1.054492462421     0.086257404298    -3.081273165546
C     -0.165530013310    -1.303294112610    -1.407326190529
H      0.576176624321    -1.863744234912    -0.822745145604
C     -0.662529186677    -2.232628591505    -2.496527864398
H     -1.245357656667    -3.064814549100    -2.055094298590
H     -1.248529459718    -1.679515770405    -3.253480201390
H      0.211547197344    -2.671736485580    -3.022294597294
N     -1.187911613517    -0.831925473616    -0.440015041216
C     -2.475727589372    -0.543422400032    -0.487534063718
O     -3.087201864206     0.227498055816     0.355795113083
C     -3.356183772382    -1.097694704331    -1.533670088584
H     -3.069699948340    -0.658913364203    -2.501185807512
H     -3.283866438016    -2.195346591715    -1.512548378699
H     -4.402906336052    -0.809309343135    -1.319522718436
N     -0.763807522400    -0.228050580905     2.649114063459
C      0.016563592752    -1.089842360731     3.370631530162
C     -0.263293858743    -1.323194462535     4.700711628691
C     -1.337453661804    -0.710828364185     5.310174188005
C     -2.126633864638     0.119836050471     4.559039098620
C     -1.822464701717     0.327293738872     3.196317475252
H      0.871563567064    -1.563518775138     2.905684728169
H      0.367744979882    -1.988391778549     5.267458438251
H     -1.559744110143    -0.891054204237     6.358705911245
H     -2.990084426569     0.608880309401     4.963986510597
O     -2.635779144313     1.090839555834     2.531248474619
H     -2.769975276466     0.745176550171     1.406806602099

