# STO-3G

title

0 1
C      3.108365682680     2.177881659636    -1.976725351261
C      4.271365403329     2.752965640013    -1.428554639831
C      5.438100877369     2.857522784523    -2.211653340243
C      5.437818029317     2.389498400089    -3.541081654269
C      4.271365871192     1.817999961089    -4.087850601062
C      3.103318149254     1.711372985884    -3.307355149588
H      2.205736701409     2.098981629434    -1.375747037762
H      4.271349185923     3.114347559661    -0.402601231973
H      6.338348655776     3.298860770726    -1.790254148414
H      6.338697705717     2.469907862897    -4.145172822438
H      4.270301631666     1.457803854341    -5.113878602649
H      2.196257260072     1.273341581055    -3.717057713853
C      1.789161227356    -0.470420730697    -0.129137109212
H      2.035553839377    -1.520781232146    -0.007690598557
H      1.934057669775    -0.048271389470    -1.117708983189
C      1.492265327894     0.338106398524     0.969083381569
H      1.398815615909     1.403830069140     0.819817970371
C      1.580912714101    -0.096889382517     2.373681066807
O      2.279208338895    -1.099385353961     2.679380493270
O      1.044017163452     0.748117214073     3.360804750099
C      1.128093827256     0.257680508407     4.706650351557
H      0.660463221625     0.990527246350     5.398352505843
H      0.587282517401    -0.711830663516     4.807680380181
H      2.190198461050     0.118933199486     5.012527728048
Pd    -0.441951536815    -0.488033655641    -0.002943689812
C     -1.520035319298    -2.628804983561     1.453936713600
O     -0.313092473833    -2.072233103423     1.190819980282
O     -1.797511056089    -3.196975414593     2.524082945652
C     -2.537196316895    -2.566651659014     0.268588023848
H     -3.532783586287    -2.423072737609     0.708905499641
C     -2.492424312925    -3.895265844227    -0.473426891115
H     -3.299743896627    -3.970744875364    -1.224834428426
H     -1.509817647000    -4.001603911626    -0.980243112320
H     -2.619346238184    -4.736383638997     0.241377423389
N     -2.144715728972    -1.468058459730    -0.658690693274
C     -2.650982717206    -1.205789005592    -1.848418978881
O     -2.044412013599    -0.564510155470    -2.797695626612
C     -4.038587778751    -1.582737963731    -2.194801310226
H     -4.542463533887    -0.675509905163    -2.572952490499
H     -3.993305389012    -2.339789855027    -2.995943642321
H     -4.592944984165    -1.954612940040    -1.319471578805
N     -0.683213891148     1.394110186177    -0.829300622233
C     -1.052042189149     2.390646528214     0.033763094486
C     -0.961847529748     3.709272571038    -0.360657334736
C     -0.532095756799     4.035849516404    -1.629472500655
C     -0.215411871161     3.019783245552    -2.492121770690
C     -0.319790081813     1.680019025059    -2.059830986568
H     -1.374098003662     2.142920205474     1.038828680092
H     -1.229733539617     4.489806649766     0.333012870882
H     -0.458940568567     5.074036799978    -1.942745228861
H      0.102759542058     3.203651655336    -3.499039896630
O     -0.067320768136     0.752067755819    -2.935259915223
H     -0.972827197516    -0.073627001189    -2.825545940235

