# STO-3G

title

0 1
C      1.340056097398    -0.255433685439    -2.112218649559
C      0.315650109403    -0.672966727550    -2.987223766457
C      0.361527204227    -0.320605667589    -4.350997107592
C      1.435175305535     0.444790806252    -4.846540813414
C      2.468682787994     0.848202655116    -3.978038377184
C      2.421687788977     0.495584734363    -2.615271309495
H      1.323979239364    -0.513869347069    -1.056148402484
H     -0.510115946232    -1.281556399297    -2.625436787501
H     -0.427770141878    -0.648121328502    -5.024095138545
H      1.472600125381     0.714614545548    -5.899542766612
H      3.306057912136     1.428243505940    -4.358957874893
H      3.229078414845     0.796652385268    -1.951556905948
C      1.190521344543     1.972318517860     2.076965623064
H      0.415396262759     2.511864960024     2.616192127676
H      1.932578699541     1.453413509951     2.675617603157
C      1.342464273562     2.067575409555     0.695341647394
H      2.184251381858     1.582508058711     0.227094010688
C      0.589381164690     3.004742557704    -0.156921759042
O     -0.238628062931     3.803220382083     0.356599514097
O      0.807184995815     2.971994928351    -1.542763091508
C      0.001482019118     3.858817148275    -2.329756591114
H      0.255451884673     3.725931735520    -3.403689230186
H     -1.080774941085     3.633512734718    -2.196903455735
H      0.195187425091     4.919674099291    -2.052158380288
Pd     0.231077656233     0.088343909171     1.319726650888
C      2.061520566940    -2.112347906190     1.369088192319
O      2.050526224746    -0.756501133943     1.410856732434
O      3.096521474995    -2.788090247008     1.243083225584
C      0.644706332584    -2.780180260403     1.495529390445
H      0.789062487836    -3.657216765219     2.139538468739
C      0.108641530702    -3.254842713989     0.164947014757
H     -0.834628098146    -3.816254329844     0.325190477583
H     -0.109317942526    -2.384995760275    -0.481560974768
H      0.846743423050    -3.916526589363    -0.335545787287
N     -0.295699536805    -1.775499920758     2.023389286215
C     -1.005589888329    -1.863661420446     3.130418985180
O     -1.586227708502    -0.875287135763     3.732411797601
C     -1.199632272617    -3.179826997679     3.775781552411
H     -1.591565045743    -3.884403441917     3.022656278433
H     -0.236110528702    -3.513303423900     4.194736833343
H     -1.932382492080    -3.077412048859     4.598724969434
N     -1.593666722659     0.942842989487     0.941360317213
C     -2.007407041336     1.043834092842    -0.358979149311
C     -3.101576589696     1.819632322165    -0.678622396511
C     -3.787526118754     2.500871020282     0.304137111800
C     -3.381580246637     2.356648248754     1.604306362779
C     -2.265166549072     1.544605936434     1.901443585431
H     -1.458874614864     0.535103627948    -1.139673609040
H     -3.408340685713     1.907376628218    -1.707305938609
H     -4.640791598768     3.125935702841     0.055474071371
H     -3.881043965202     2.843319706887     2.417048560350
O     -1.965302885314     1.405758750070     3.156557328227
H     -1.643102721894     0.280463654020     3.441365002867

