# STO-3G

title

0 1
C      1.058604392877    -0.307604959714    -2.584641226648
C      1.277963599169    -1.652409304363    -2.949654269735
C      0.676773002376    -2.170975525985    -4.113485707771
C     -0.136404593178    -1.347449416392    -4.917698058776
C     -0.337869423415     0.001863864699    -4.565292014819
C      0.263140890637     0.521762186222    -3.401685708503
H      1.521711885045     0.083355569767    -1.684154935656
H      1.913893438343    -2.285811351160    -2.336688513011
H      0.848214312129    -3.207825709771    -4.393346805143
H     -0.597404069189    -1.748947099873    -5.817547880797
H     -0.946046181005     0.645193261808    -5.197585867998
H      0.129574549553     1.573534170130    -3.152246164531
C      2.122519466522     1.422507714255     1.766248448326
H      1.611223844097     2.017878913518     2.518718507477
H      2.788764643914     0.643864140768     2.125062602865
C      2.066752751840     1.721774907089     0.406553912265
H      2.680597403104     1.157713249002    -0.279559417075
C      1.443627006933     2.938842072489    -0.138994102329
O      1.362864644659     3.067997400078    -1.388671805542
O      0.916128018530     3.907605625874     0.732702068166
C      0.314633526634     5.052077022048     0.112895312271
H     -0.074409040168     5.732173729382     0.900864537998
H      1.061755610778     5.610953820553    -0.494661410809
H     -0.538642292403     4.749400297668    -0.534483329566
Pd     0.556685505094     0.021687200546     0.974700295601
C      1.574590540841    -2.579078948012     0.434366554421
O      2.022552302169    -1.320873300827     0.658403307605
O      2.288376696414    -3.498894795127    -0.005458910432
C      0.053572525733    -2.803630149494     0.766324478940
H     -0.012342288600    -3.793179979403     1.237388502581
C     -0.810997547571    -2.806333393090    -0.472937095169
H     -1.858736613051    -3.039773510121    -0.193461459632
H     -0.791227249773    -1.806253464761    -0.951114121731
H     -0.448441445457    -3.567642481729    -1.195081603280
N     -0.395215705694    -1.683937397076     1.609818616384
C     -0.871748506303    -1.742379325205     2.831865856632
O     -0.999468387142    -0.734102055902     3.644228228365
C     -1.320192870317    -3.036631717150     3.385259220511
H     -2.058614305536    -3.474729124720     2.692174820298
H     -0.439830193432    -3.687182956043     3.516393752228
H     -1.794897268319    -2.868712043577     4.370624326568
N     -0.997929435915     1.342464967646     1.014379433623
C     -1.625470479080     1.643727535347    -0.163196712421
C     -2.570261262461     2.648037600817    -0.201370752497
C     -2.896333541242     3.348650528301     0.940398607481
C     -2.277216495483     3.010812673338     2.114979512965
C     -1.328421606900     1.963603795611     2.129759406010
H     -1.365417435057     1.105621494165    -1.066112339954
H     -3.051442977929     2.885951154875    -1.135790435017
H     -3.637833336947     4.142439868209     0.912404246380
H     -2.503598043440     3.496004027760     3.042600174819
O     -0.838786170642     1.630379740660     3.281201256335
H     -0.794952447818     0.375973263621     3.440282882198

