# STO-3G

title

0 1
C      0.534110081895     0.028561297437    -3.196763080653
C      0.702444988091    -1.238726728421    -3.792094620667
C     -0.215594561866    -1.690031982229    -4.760455990527
C     -1.297558664231    -0.871755871600    -5.143159808328
C     -1.454927647143     0.403245284687    -4.564408271748
C     -0.537989301748     0.853398044839    -3.594042333694
H      1.246454250068     0.353051833349    -2.445391473178
H      1.547415153010    -1.859050358705    -3.502224316277
H     -0.084246898512    -2.667511809834    -5.219440030986
H     -2.003394939415    -1.218736461040    -5.894907386106
H     -2.277061337602     1.043874350470    -4.877248691504
H     -0.652943077414     1.849533739408    -3.170529455884
C      0.743401766218     2.504433768032    -0.683902304632
H     -0.198712247947     2.995773480811    -0.909565107707
H      1.305213080373     2.095302867031    -1.512916842878
C      1.351863879359     2.637776149155     0.564012480652
H      2.347338321980     2.240503935739     0.672444046969
C      0.830560915695     3.508102763249     1.652336995776
O     -0.122093956387     4.283146661623     1.387701034686
O      1.461063483101     3.619322465232     2.906905833154
C      2.349070415183     2.570013556629     3.315698080229
H      2.633386645353     2.737772917917     4.377391605137
H      1.850812107331     1.575894982150     3.257882745441
H      3.287679988900     2.580238345002     2.719975250407
Pd     0.371163339946     0.561537797051     0.444037191970
C      2.236694033886    -1.417227868688    -0.368141696645
O      2.179727431125    -0.075019924331    -0.178005124913
O      3.138037785539    -1.985348229614    -1.010184269961
C      1.058122829253    -2.218210776718     0.295494437293
H      1.511513259524    -3.114238380340     0.739875514970
C      0.020157935258    -2.657627732521    -0.710912884268
H     -0.757195998396    -3.262714257364    -0.200718151134
H     -0.468798108696    -1.771384228555    -1.163657140816
H      0.490751200044    -3.270630320627    -1.507601512759
N      0.388378217390    -1.323107068548     1.252335657400
C      0.222262849788    -1.506766608056     2.543149860425
O     -0.146001893599    -0.592839892319     3.386064753323
C      0.477920156880    -2.835314312203     3.137042838120
H     -0.133827942447    -3.580637697171     2.600537446336
H      1.555856045033    -3.053814605801     3.062225239825
H      0.185190120440    -2.820022208160     4.204147086546
N     -1.555087486221     1.123908264150     0.815358030518
C     -2.426594826509     1.134859847792    -0.239325563845
C     -3.670975109446     1.711934316267    -0.099947895278
C     -4.052630315695     2.273836198300     1.100141184857
C     -3.182185930470     2.213372176718     2.155932348281
C     -1.918193712264     1.608051006950     1.985941256613
H     -2.129751666805     0.706440642207    -1.188646300788
H     -4.344571474319     1.733142211406    -0.940537577614
H     -5.027304343478     2.741433388536     1.210738495725
H     -3.419129882238     2.620365017515     3.118185826132
O     -1.157551211186     1.535335875506     3.031747210890
H     -0.552920102496     0.490202395573     3.159985027062

