# STO-3G

title

0 1
C     -2.459145158606    -1.338213543098     0.638216242121
C     -2.575422835405    -1.291396475334     2.042953164713
C     -3.751794105896    -1.741569255905     2.672688020156
C     -4.818593721383    -2.240164336089     1.897945248151
C     -4.705153014818    -2.289034275281     0.494530160221
C     -3.526506453677    -1.838686165568    -0.134538907745
H     -1.550501717715    -0.974921771925     0.167128721309
H     -1.751154669935    -0.904684834643     2.640112921009
H     -3.834463539342    -1.703879212374     3.756487240223
H     -5.726988099537    -2.589020131880     2.383797396785
H     -5.526796981491    -2.677683684931    -0.102912771451
H     -3.446252339945    -1.884019069379    -1.218256984434
C     -0.601309467858     3.492737439871    -1.932096885268
H     -1.547420612615     3.817729863711    -1.509488818845
H     -0.589222473574     3.187685891518    -2.972689532729
C      0.601743334431     3.694402007912    -1.256833853883
H      1.533720391240     3.486754598726    -1.762121388939
C      0.730148521593     4.361720052725     0.051075045609
O     -0.292643649468     4.828044769111     0.621490555028
O      2.010823673096     4.506474351271     0.608407367394
C      2.050438412853     4.993956863177     1.956650565599
H      3.106796570136     5.053483832885     2.295398887522
H      1.603116663601     6.011342842802     2.025209035822
H      1.507222604206     4.301397037204     2.640492209490
Pd     0.032742476841     1.483258064132    -1.087583728797
C      1.266333730556     0.041885906571    -3.230560141168
O      1.110266668236     1.306189577030    -2.770725714793
O      1.785433788207    -0.236310045201    -4.324781399062
C      0.714395376589    -1.060367908220    -2.262663659145
H      1.393773173762    -1.916910394606    -2.354473536615
C     -0.673509711399    -1.509513473163    -2.659387881938
H     -0.999318670309    -2.333872236698    -1.992335177094
H     -1.383942982978    -0.663765680612    -2.562550317633
H     -0.673222592548    -1.873677594819    -3.708379810628
N      0.626216147876    -0.483173375051    -0.906225316339
C      1.230417155508    -0.923586019583     0.180285215567
O      1.339126023046    -0.268505350080     1.289420888019
C      1.810846455088    -2.282823893010     0.200544473673
H      2.153993310794    -2.511474548139     1.226856801808
H      1.024255293966    -3.000008834440    -0.089554127706
H      2.676457220287    -2.315237898383    -0.482931864349
N     -1.255521354565     1.728416573997     0.500518827346
C     -2.592335336534     1.827707863519     0.220364934145
C     -3.481608088079     2.203103020895     1.204245734679
C     -3.040319440621     2.473809939704     2.480360649934
C     -1.704708675712     2.339654455966     2.751032877424
C     -0.820555315205     1.945366247240     1.723137852123
H     -2.949355532801     1.620783686817    -0.781514502448
H     -4.530476989252     2.279041886502     0.971561555262
H     -3.737774042317     2.772681757261     3.257943097920
H     -1.299042265597     2.521016533778     3.724839747610
O      0.421567831856     1.784630889376     2.067817219679
H      0.936445899423     0.834130346600     1.583809768776

