# STO-3G

title

0 1
C     -0.031605188914     0.019615753953    -3.152131847731
C      0.654679558276    -1.049906774987    -3.763474355929
C      0.262761092139    -1.494959605021    -5.041151916310
C     -0.809757917741    -0.871558100660    -5.709722602841
C     -1.486950195151     0.205184648633    -5.103872176542
C     -1.097006383739     0.650947934846    -3.825343725946
H      0.270696324781     0.351821551681    -2.164184207127
H      1.493902561648    -1.520697424431    -3.256868702170
H      0.794182851659    -2.317943665198    -5.513602847836
H     -1.109671659312    -1.215815694309    -6.697180626343
H     -2.306219273828     0.695216078550    -5.625762771195
H     -1.615355979150     1.495458777280    -3.373892944422
C      0.880436558641     2.365156949962    -0.712621535663
H     -0.031086204673     2.843150319162    -1.061341265505
H      1.501578483504     1.873034185577    -1.450747105087
C      1.388811735279     2.594282465281     0.565677366712
H      2.368932397909     2.202415023692     0.781088874387
C      0.796144141209     3.558794501574     1.531884815168
O     -0.171791020650     4.262741371100     1.149794154556
O      1.364360349257     3.826676179366     2.792504719812
C      2.279999998891     2.871020615483     3.344111013215
H      2.511971467406     3.163863683264     4.391281463450
H      1.827949873127     1.853855370838     3.376858280767
H      3.240938010484     2.863784542481     2.785082012968
Pd     0.403860222427     0.506800008951     0.519410863501
C      2.149401216509    -1.530134029177    -0.403564608268
O      2.158120118030    -0.193530073505    -0.183138955829
O      2.994371542962    -2.122474630637    -1.098898844318
C      0.973038842036    -2.299149087802     0.300983649258
H      1.419076212232    -3.212516820551     0.716367321522
C     -0.118699506735    -2.700270757010    -0.664245287018
H     -0.871348078376    -3.319414669609    -0.134281725606
H     -0.627480044938    -1.799534501284    -1.059939538489
H      0.305466526572    -3.287251829011    -1.505847562806
N      0.371955444504    -1.395484170114     1.297207817326
C      0.244118356263    -1.604504232282     2.587729707607
O     -0.057108860079    -0.698797998874     3.467445989458
C      0.461261157215    -2.956652616907     3.142359866419
H     -0.196279599766    -3.663334825730     2.607751465846
H      1.526662709651    -3.217102172506     3.030792140398
H      0.200916224231    -2.956248858952     4.217968056002
N     -1.478313552533     1.150494493262     0.984511402773
C     -2.402226856506     1.223926636059    -0.021614569858
C     -3.620198177780     1.830179762501     0.200705417854
C     -3.920748688013     2.367467667317     1.434364386800
C     -2.998963873150     2.249370794076     2.440392973957
C     -1.764609736488     1.613191460078     2.185932417260
H     -2.169380564013     0.816271607097    -0.996975380411
H     -4.335112304754     1.899200522502    -0.602327287033
H     -4.872759529613     2.861401854779     1.609180978274
H     -3.172309131848     2.636663817677     3.423938720403
O     -0.949212846985     1.493778780206     3.183676475687
H     -0.396556624094     0.393243567182     3.273526540557

