# STO-3G

title

0 1
C     -2.272586158671    -1.247213439745     0.753989541900
C     -2.162905553153    -1.458677140856     2.143978290005
C     -3.311142794584    -1.734292249547     2.911533079167
C     -4.575098003188    -1.797584480299     2.290675052663
C     -4.687573373935    -1.587211338367     0.902110920824
C     -3.537252791512    -1.312663197590     0.134735696216
H     -1.382424022893    -1.018971379968     0.175852586920
H     -1.186127002753    -1.405750437912     2.621965226863
H     -3.220004671587    -1.898121619067     3.982812702068
H     -5.461898333742    -2.011605507672     2.882836456730
H     -5.662219078784    -1.640262023671     0.422183182524
H     -3.632041873590    -1.155087335767    -0.937345004637
C      1.786102624876     3.151290368113    -0.607339298722
H      1.929405512111     3.220606695720     0.468203348566
H      2.627842157768     2.784972321709    -1.187216350108
C      0.650960617791     3.645756626535    -1.249002805621
H      0.601248502461     3.614902862300    -2.327608590733
C     -0.390056341441     4.441734212832    -0.580442195649
O     -1.450572498512     4.698191630911    -1.209157086662
O     -0.220007779797     4.833135126374     0.759505219004
C     -1.284203194729     5.606662565646     1.330094609062
H     -1.037958813828     5.843816363469     2.387379060001
H     -1.416512361344     6.564532698154     0.778159708438
H     -2.240204710585     5.036997265420     1.318025622871
Pd     0.513588458511     1.348908051911    -0.982328178328
C      1.128874364489     0.111314225601    -3.486019678042
O      1.366884787905     1.253813695850    -2.797360537794
O      1.458012904686    -0.065335444500    -4.671044068390
C      0.380900260519    -0.991594627385    -2.653749432104
H      0.779468356393    -1.957680581200    -2.988182364369
C     -1.108522720014    -0.975913112031    -2.909250346258
H     -1.586697552895    -1.806965224909    -2.351519072028
H     -1.539894801672    -0.014169886355    -2.564002788978
H     -1.312448810439    -1.103743987866    -3.993204455761
N      0.586852615111    -0.695943147012    -1.223552974066
C      1.228746086221    -1.436024639983    -0.342254431443
O      1.640145084266    -1.028615341059     0.817231642645
C      1.485408669727    -2.862364265018    -0.628711117634
H      1.914055571118    -3.339010356024     0.272571959509
H      0.523418304545    -3.343654595720    -0.874853722364
H      2.210787847276    -2.938761147242    -1.456700317283
N     -0.511781646941     1.554467465750     0.783120225236
C     -1.835690798412     1.903434994711     0.757985715123
C     -2.489721772684     2.213296485576     1.931858557277
C     -1.824628191383     2.169685804327     3.137275714776
C     -0.506634950248     1.795573602944     3.143566560585
C      0.128361632275     1.457616450532     1.928316817584
H     -2.363533940541     1.951126698572    -0.187403817200
H     -3.533619400420     2.477371560776     1.900955865567
H     -2.338555356104     2.409578272251     4.063913163801
H      0.059612374667     1.712838211773     4.048717590476
O      1.347361964511     1.015809729594     2.015103060977
H      1.556270935997     0.054866681907     1.316673027750

