# STO-3G

title

0 1
C     -1.083294768884    -1.144265512977    -1.816988492279
C     -2.443989119971    -0.826861331773    -2.008514592966
C     -2.960713776268    -0.676207966986    -3.309866906480
C     -2.116528817253    -0.841864930555    -4.426498540801
C     -0.757052968656    -1.160356698881    -4.238555517795
C     -0.241259321520    -1.311269390296    -2.935072485316
H     -0.694666889820    -1.242423809543    -0.807811805668
H     -3.094559731052    -0.697518201098    -1.144992448115
H     -4.011344292536    -0.432551411324    -3.450368913230
H     -2.515754219959    -0.727180939509    -5.431683974110
H     -0.106843418835    -1.293607940070    -5.100220759672
H      0.808328489338    -1.561631920197    -2.799042364957
C      0.556798588537     2.061482623153     3.133996781521
H     -0.437147595715     2.497329966219     3.065572717430
H      0.754636695531     1.438653007906     4.000925477590
C      1.586812354102     2.404545078804     2.258451888175
H      2.570999829273     1.992999707341     2.424138120004
C      1.503006456907     3.483509903994     1.259986871149
O      0.488490763432     4.228564010695     1.216835653484
O      2.534569607430     3.600547229884     0.312470220963
C      2.388215769569     4.662077956682    -0.641909621152
H      3.257781740592     4.659328586615    -1.333987485687
H      1.460789768547     4.529453383805    -1.244537812883
H      2.355151401070     5.651162896439    -0.130530476965
Pd     0.642804120245     0.365032467664     1.675306621048
C      2.479163275950    -1.676910267007     2.475922995882
O      2.122170191561    -0.407709483388     2.789629156675
O      3.463074841086    -2.259247096815     2.962338946447
C      1.541214760281    -2.362084630999     1.418945712155
H      1.476953562115    -3.420615889237     1.700983644496
C      2.111005155367    -2.274562835795     0.021875098330
H      1.451834290318    -2.826074655702    -0.679334238634
H      2.167859544035    -1.213373360297    -0.295515169382
H      3.125905927689    -2.724039629870    -0.007046157332
N      0.254808838398    -1.641668223879     1.417843194702
C     -0.930812800613    -2.123842442938     1.736063825620
O     -1.978363158123    -1.411436865671     1.999429199564
C     -1.142494916405    -3.585795403787     1.769105898296
H     -0.823197099476    -4.005649352236     0.799651101212
H     -0.570510483709    -4.006628987006     2.612304427250
H     -2.218305203165    -3.794314120819     1.922638133959
N     -0.712251518162     1.256218737591     0.416660249302
C     -0.285328492256     1.760072956912    -0.782707161005
C     -1.121532825740     2.557145917999    -1.534984564759
C     -2.393682550189     2.848943574057    -1.094070473564
C     -2.816014774517     2.304857295303     0.090336780537
C     -1.941686794672     1.477969409873     0.828304046917
H      0.718665274767     1.546696487509    -1.130349026069
H     -0.776025222940     2.949600531234    -2.476063340647
H     -3.054151076025     3.480000725890    -1.682156293305
H     -3.801194643592     2.470343479224     0.475825826290
O     -2.433600406972     0.928630211944     1.899509717801
H     -2.113329825325    -0.207160327715     2.037514207230

