# STO-3G

title

0 1
C      2.913796732721    -1.262903514507    -0.204110718580
C      4.175437985324    -0.992327344034     0.363706380977
C      4.747442203523    -1.892828296061     1.284288110293
C      4.061942101419    -3.073941930198     1.633044786869
C      2.807935613875    -3.355578518156     1.054464175352
C      2.236207811636    -2.452874676017     0.136296207637
H      2.476657305971    -0.560668421803    -0.907892541995
H      4.711839930702    -0.087587701327     0.084084046060
H      5.723203560039    -1.681375069221     1.715773894357
H      4.505580385695    -3.774014665354     2.337736431434
H      2.283447712842    -4.273321680697     1.312099025964
H      1.266955423182    -2.673078916812    -0.304765408221
C      0.250219455854     2.703562227200     0.561592134602
H     -0.304607541743     2.914752336921     1.472049448957
H     -0.234781568046     2.962630740094    -0.373944440219
C      1.593535297969     2.315646694945     0.578198921514
H      2.113862696230     2.209655785488    -0.361544787499
C      2.443349677442     2.318235391018     1.780824864920
O      1.975624726683     2.701862481244     2.885793597154
O      3.778234320509     1.896538175887     1.661370337985
C      4.533255999494     1.855232847533     2.880161293699
H      5.564603642134     1.503612935276     2.662661911943
H      4.599974797556     2.868160878758     3.338698777166
H      4.070690921348     1.150040045342     3.607530972778
Pd     0.160499183678     0.512655523587     0.218556681063
C      0.366656735701    -0.102740164060    -2.565908047159
O      0.589568854718     0.904271043560    -1.694506965662
O      0.952640313110    -0.201841492189    -3.659175304565
C     -0.726429644173    -1.127787565459    -2.131790308159
H     -0.341310388262    -2.121136537415    -2.402728094254
C     -1.996191715868    -0.848304526298    -2.923088563437
H     -2.751403640071    -1.641877277991    -2.771467563424
H     -2.423127850996     0.126088754165    -2.604003518741
H     -1.769168165753    -0.802722169850    -4.009827348959
N     -1.014027867825    -0.981320432385    -0.678087051650
C     -1.976128332047    -1.580759059379    -0.004755241714
O     -2.519498178337    -1.120687830689     1.078085578882
C     -2.492554753501    -2.908123951392    -0.404217845596
H     -3.552064267022    -2.788801265873    -0.688698197699
H     -1.903844104767    -3.341890191890    -1.224978066270
H     -2.419923663393    -3.572995639280     0.475532300472
N      0.063367837773     0.105751263961     2.241997837444
C      1.162471115060    -0.385423606690     2.895555799125
C      1.203319242306    -0.390243750638     4.274498061563
C      0.146784040088     0.102172060051     5.009259497726
C     -0.961758843598     0.549146575745     4.340589627305
C     -0.982577678458     0.518179296651     2.928998707181
H      2.017036707393    -0.733679021104     2.335774969165
H      2.082078252578    -0.758649901778     4.775893760480
H      0.183306772356     0.115619478055     6.095056813724
H     -1.831610383514     0.909268480663     4.850561858818
O     -2.094860691347     0.856395555406     2.346190979436
H     -2.333166631181    -0.065781165248     1.546247633439

