# STO-3G

title

0 1
C      0.729917108694     0.354511510594    -2.321598981988
C      1.471642927862    -0.680053907960    -2.929723712936
C      1.295776464710    -0.958551603082    -4.299230532733
C      0.385501008556    -0.202308469768    -5.064528303665
C     -0.342621686586     0.842066174106    -4.461438435807
C     -0.168756120749     1.120413012336    -3.091121269918
H      0.878572051520     0.559472679192    -1.265162650708
H      2.186120657164    -1.251204322131    -2.342398516828
H      1.869893924558    -1.755047326557    -4.767302355781
H      0.252902197005    -0.416850695042    -6.122827800239
H     -1.030694123522     1.440406756099    -5.055050943230
H     -0.713504892656     1.949818384627    -2.641556427725
C      0.940156736293     2.143515161769     2.200592243592
H      1.964104902316     1.804132382870     2.323516582672
H      0.308920670338     2.155621114343     3.086536519944
C      0.484486474360     2.693449005838     1.006403353302
H     -0.512810234337     3.109751286211     0.979175060030
C      1.333349143262     3.025263873317    -0.148126143599
O      0.798327133125     3.585308832157    -1.140883381859
O      2.690092173651     2.663306436693    -0.152738275869
C      3.397019202742     2.887661177159    -1.380452399195
H      4.449307973979     2.549897578559    -1.263681561159
H      2.940571190942     2.305449813983    -2.213309772327
H      3.403272681305     3.969469304181    -1.643173110671
Pd    -0.015615351960     0.361545441938     1.227928838792
C      1.898926894703    -1.615641394032     0.503172586485
O      1.843777956754    -0.313494975037     0.868833939981
O      2.904610034905    -2.151604202160     0.002771686924
C      0.574486112272    -2.423790379053     0.753171804727
H      0.885955856186    -3.397324546406     1.153909356364
C     -0.208151694156    -2.659521822525    -0.518025505592
H     -1.084260257006    -3.303681328660    -0.299417287062
H     -0.576311536592    -1.695454022382    -0.921471994163
H      0.429739875320    -3.158717195182    -1.277284414671
N     -0.276241694923    -1.628428343557     1.653267917797
C     -0.743970654867    -1.979494543558     2.829919760186
O     -1.259736939980    -1.175970916923     3.711860601505
C     -0.712078933873    -3.399054875253     3.238636980968
H     -1.210487490598    -3.998411737462     2.457718398878
H      0.338614434605    -3.700073614779     3.383111297438
H     -1.255454572571    -3.516996786480     4.195366026731
N     -1.958397705265     1.001055407965     1.302970923597
C     -2.605629194879     1.218286046755     0.117742434919
C     -3.807856276101     1.893416072077     0.106670244844
C     -4.375620086432     2.337089056805     1.282216282275
C     -3.726596388477     2.076513770694     2.461050588753
C     -2.502805876877     1.371821085900     2.444015962710
H     -2.159866060925     0.881855526644    -0.810476095011
H     -4.303817986596     2.076965055774    -0.832624230841
H     -5.322274801995     2.870953657878     1.275440877673
H     -4.125101798545     2.372164501237     3.410758850912
O     -1.958026281127     1.112640405282     3.589982366910
H     -1.471985114699    -0.046838678484     3.629804612871

