# STO-3G

title

0 1
C     -2.525302701318    -1.852393836835     0.123805338291
C     -2.488839840077    -1.424558942847     1.467457027982
C     -2.645062970207    -2.357650274742     2.511520080626
C     -2.842492031848    -3.721316497899     2.214353891365
C     -2.890860232540    -4.149340988770     0.872136098611
C     -2.734544842165    -3.215147339885    -0.171374971359
H     -2.400823093653    -1.136257215655    -0.682580987537
H     -2.333897173923    -0.372946575131     1.698701484366
H     -2.618233036915    -2.024498534552     3.546840134225
H     -2.968846741913    -4.441039593505     3.020314409796
H     -3.058885401973    -5.199279167238     0.641932393156
H     -2.787846419258    -3.544381899859    -1.207202034699
C      0.317376155622    -2.018356351067    -2.073606678937
H      0.554385393040    -2.945800541951    -1.563050247613
H     -0.693205868994    -1.894210922552    -2.443933277712
C      1.313412140509    -1.130738395043    -2.487928563521
H      1.046952010413    -0.305542740172    -3.131551101979
C      2.759926940291    -1.338385616633    -2.299115881837
O      3.179087046783    -2.401291509770    -1.767044082805
O      3.646217677239    -0.359427610832    -2.776772891966
C      5.017634644208    -0.521645309986    -2.389644895720
H      5.619715689300     0.311990426002    -2.809983571732
H      5.117572992024    -0.494118229552    -1.279834270702
H      5.429864995872    -1.480833809669    -2.776978471588
Pd     0.294056295050    -0.243879561616    -0.655945076106
C     -1.862718402849     1.406367697042    -1.576131108870
O     -0.976977610286     0.489179634324    -2.015205298917
O     -2.935576275534     1.652907930280    -2.157207007222
C     -1.430997252125     2.184255015272    -0.298428058813
H     -2.335755023976     2.266783582270     0.320226130054
C     -0.969580722905     3.576448572652    -0.702290070802
H     -0.789684098871     4.214034155958     0.183806439352
H     -0.028985665332     3.497355087243    -1.287926735159
H     -1.743070567296     4.071950727539    -1.327300857731
N     -0.305500777365     1.485026885255     0.383052296631
C      0.327844864703     1.913553361549     1.457618251711
O      1.540565943639     1.590072315249     1.779077667871
C     -0.324689192225     2.790199378510     2.455942239923
H      0.210311891057     3.755451729049     2.459243529552
H     -1.393596171024     2.930678202033     2.247184528531
H     -0.216935982088     2.307600852554     3.444286270571
N      1.431655664973    -1.314397591836     0.703829519507
C      0.947742635984    -2.516199822888     1.149732613117
C      1.770376106401    -3.384266406011     1.836987639081
C      3.085234754445    -3.057221411466     2.084618504061
C      3.543132192642    -1.836203292723     1.667944274013
C      2.672364023701    -0.964325729086     0.977513572268
H     -0.070901236111    -2.803344555546     0.937281830198
H      1.381286769788    -4.334496809621     2.162581317083
H      3.739074638907    -3.744934138866     2.613811641268
H      4.545266883930    -1.508358589233     1.851342794757
O      3.137083136395     0.209531609888     0.670757676016
H      2.285604918772     1.012770902120     1.099598849638

