# STO-3G

title

0 1
C      2.929619161401    -1.246581389951     0.420518879305
C      3.711881675336    -0.682298961065    -0.607493397751
C      5.040921102318    -1.110112045467    -0.792593257264
C      5.587153115093    -2.102338522519     0.045639907564
C      4.801054682283    -2.673730684655     1.065804696671
C      3.471217075896    -2.246791668045     1.252654738547
H      1.910641447958    -0.891016176026     0.567366356046
H      3.287959499922     0.080103100801    -1.256096791438
H      5.642051735989    -0.674786573560    -1.587224883364
H      6.613069500989    -2.433005829829    -0.100400080836
H      5.218811170554    -3.448280148357     1.705201291823
H      2.868496060810    -2.702597408769     2.035471805662
C      0.224563298328     2.573639020340     1.433612162042
H     -0.103959754527     2.582591078709     2.468117773544
H     -0.449807089346     3.033022138532     0.715722990380
C      1.501819057234     2.184355630434     1.056915621925
H      1.790458995557     2.283010241651     0.021955404791
C      2.588025477279     1.815617642992     1.979813688465
O      2.321079358176     1.485773034459     3.165772255415
O      3.893361817088     1.723702008349     1.471796011072
C      4.881662868483     1.186372455385     2.361246783889
H      5.861933708879     1.149722760022     1.839069769366
H      4.988617122807     1.823437386006     3.267969863875
H      4.618490009336     0.147426974111     2.662625862690
Pd    -0.138981180018     0.473802628126     0.648348422235
C      0.384128945938    -0.220816987443    -2.089411566527
O      0.501095263652     0.837948455848    -1.245909185568
O      0.809936233089    -0.223119267446    -3.257229276939
C     -0.291276869644    -1.452390271329    -1.382826884332
H      0.491745233232    -1.931518604501    -0.781443443016
C     -0.820336525951    -2.510315060926    -2.330951339888
H     -1.379235592079    -3.283478993258    -1.767012971499
H     -1.441924576133    -2.059671867623    -3.126327437319
H      0.036775494185    -3.006616957732    -2.833163744689
N     -1.273285417594    -0.899940329861    -0.418667911741
C     -2.557783435058    -0.593546254407    -0.465424318818
O     -3.136501727226     0.247123989393     0.329998110417
C     -3.461933013650    -1.195068616024    -1.464284867312
H     -3.173375319003    -0.829121574966    -2.461417962380
H     -3.416047940699    -2.290400355943    -1.369688724997
H     -4.498849647509    -0.866592092909    -1.260425957200
N     -0.641202268049    -0.017978104862     2.586823982184
C      0.255505994172    -0.723005975910     3.343816869597
C      0.036544617850    -0.898407062818     4.694464410477
C     -1.071760320296    -0.352115182940     5.301637073216
C     -1.961747666050     0.343241960034     4.527476168696
C     -1.722286943124     0.483749164279     3.142929251761
H      1.142782039820    -1.136140607063     2.884726997954
H      0.758606292571    -1.441151248103     5.281317484536
H     -1.238154730185    -0.473263145503     6.368633379460
H     -2.849421672661     0.783757404047     4.934474910562
O     -2.626459519369     1.134698368877     2.477048016033
H     -2.784023188108     0.777839783211     1.380321482304

