# STO-3G

title

0 1
C      1.123609676454     3.333281521027    -0.802570882845
C      0.845230738576     2.700200296138    -2.046801119942
C     -0.460000417067     2.764705053051    -2.599960095125
C     -1.473983272154     3.460697446739    -1.925679574193
C     -1.191318903403     4.108949671772    -0.701248145726
C      0.095731441348     4.042940903651    -0.143223504047
H     -3.019214400757     0.344046345869     2.325092941582
H      1.660417396024     2.273674994685    -2.624326090831
H     -0.666000108076     2.277602227994    -3.548817053448
H     -2.472550533614     3.514104106306    -2.352555655672
H     -1.973661929315     4.667467063578    -0.192095098916
H      0.312901670858     4.541244707705     0.799080796844
C      1.486835671954    -0.703987821006     1.194826392804
H      0.535695001537    -1.097370710260     1.535475953840
H      2.178067789197    -1.415699562029     0.755988297969
C      1.954877084384     0.582351002858     1.528330884625
H      2.955219940233     0.888862086116     1.257153849587
C      1.236381182502     1.549541345228     2.375825852615
O      1.593793541269     2.757844386471     2.330844187681
O      0.160364478344     1.134926329111     3.178692129911
C     -0.678317756313     2.187237341259     3.676333092156
H     -1.500872641222     1.752825831115     4.282634205949
H     -0.100985201016     2.886539909836     4.322427591546
H     -1.140421977019     2.747600555630     2.831519782551
Pd     1.001759177492     0.682985572646    -0.493257750935
C     -1.610262076892     0.109943758529    -0.379435042800
O     -0.836904294130     0.902943949689     0.360983670700
O     -1.237235115141    -0.321300485806    -1.513140525078
C     -2.951311473254    -0.290810675864     0.270376251765
H     -3.227495793042    -1.257101547018    -0.164992972173
C     -4.048644823553     0.714778678407    -0.004506067812
H     -4.992470253670     0.369089023034     0.465455972912
H     -3.765431070308     1.694928848602     0.431246606579
H     -4.202134609281     0.824452404666    -1.097767802001
N     -2.807565650049    -0.438378295115     1.719133890860
C     -2.047914762547    -1.456610554031     2.206632085315
O     -1.428601422218    -2.278729296078     1.487719149257
C     -1.993633014701    -1.581730245431     3.677346865663
H     -1.400606264120    -2.476682385621     3.933143969448
H     -1.508685184178    -0.677451958755     4.073714234981
H     -3.026762073006    -1.676414038009     4.052611681638
N      2.730898505801     0.237819961859    -1.403262481838
C      2.692926041775    -0.788786698803    -2.305621910411
C      3.812286356866    -1.086405798918    -3.048908828352
C      4.976488291089    -0.368079766557    -2.890901759854
C      5.001866938683     0.654837070380    -1.979797527393
C      3.849932006297     0.962829667017    -1.213398486972
H      1.780587077736    -1.359775801025    -2.437379954236
H      3.774086822094    -1.896167448595    -3.759533884200
H      5.859754067371    -0.609594577670    -3.476383433781
H      5.883434478997     1.239621786407    -1.809170688008
O      3.945876757689     1.912575384201    -0.378894104993
H      2.129182628496     3.288103434605    -0.384825433739

