# STO-3G

title

0 1
C      0.882368207813     3.164645349110    -0.471195077135
C      2.140520179948     3.321784763856    -1.100493582643
C      2.305163095040     4.188597643862    -2.194731935917
C      1.204475211595     4.908864861348    -2.696996765283
C     -0.058154293382     4.753721837362    -2.088163586177
C     -0.217625601536     3.893370745518    -0.989874191087
H     -2.787107283687    -0.169049301845     1.082924731136
H      2.997964135002     2.769014503825    -0.716918270651
H      3.287089715624     4.300583875937    -2.649562318139
H      1.327209483226     5.580809056994    -3.542876272422
H     -0.915580469715     5.301656979882    -2.472173077665
H     -1.203126922947     3.775957977921    -0.545942401945
C      0.778625090349     2.266302276911     0.703885488540
H     -0.065470148398     0.962943657073    -1.049425575713
H      1.600511079735     1.555724670794     0.815750817355
C     -0.197997797379     2.328754462175     1.645990597522
H     -1.001792415372     3.047032619120     1.555844161573
C     -0.213686268692     1.549175921338     2.890123937211
O     -1.032160534980     1.875082106933     3.791818059355
O      0.747975492110     0.542832849418     3.103389165896
C      0.728212634831    -0.076285852199     4.397606516568
H      1.511945903591    -0.861884078224     4.442446792812
H      0.935596174120     0.671657081684     5.195489617107
H     -0.256156271485    -0.557052898596     4.596833618916
Pd    -0.244604148861    -0.190221459574    -1.996433617648
C     -0.807754879291    -1.426160575238     0.435121868348
O      0.464375788381    -1.522960717414     0.424408123100
O     -1.540304343030    -0.955877189691    -0.561581300132
C     -1.598210312678    -1.789488069525     1.698010892257
H     -0.911857410239    -1.877444147396     2.542610094640
C     -2.368989715838    -3.086107608461     1.546445745021
H     -2.874155034940    -3.329076556631     2.504543843640
H     -3.141727423723    -2.965456235216     0.759742274903
H     -1.681544947673    -3.915062195031     1.280899808617
N     -2.549667042354    -0.694498550452     1.918856920796
C     -3.056696983095    -0.444869023637     3.153729268420
O     -2.763729408758    -1.108250459420     4.178688214987
C     -4.023346451012     0.668957189432     3.266827289090
H     -4.969744829770     0.249639265867     3.644178959244
H     -3.605188425203     1.386497812022     3.993415813889
H     -4.173832580904     1.159678028587     2.290554144689
N      1.569979326562     0.360268227281    -2.761519350682
C      1.789611468749     1.080595403433    -3.905177098826
C      3.077221298748     1.385974877371    -4.290294293004
C      4.150386694748     0.989931233050    -3.523288754346
C      3.903673282904     0.290075843398    -2.371699857115
C      2.574850048080    -0.004203376565    -2.001902645443
H      0.950905512470     1.397050465872    -4.514335054369
H      3.241747793928     1.950137985767    -5.194019807682
H      5.167178572862     1.235364585391    -3.818844968299
H      4.695810689012    -0.026734866376    -1.721224217411
O      2.478796615286    -0.630275152910    -0.850604087030
H      1.573020945818    -0.948223953144    -0.430844389560

