# STO-3G

title

0 1
C      0.719544513791     3.061754767964    -0.196235747889
C      1.590185136286     3.637895418783    -1.155475632531
C      1.107750715745     4.485522567225    -2.167110781247
C     -0.268040246587     4.779481598420    -2.239788559939
C     -1.144595261479     4.221007088552    -1.286933774893
C     -0.663573052325     3.373428312705    -0.274236648913
H     -4.141916917342    -1.052649762942     0.737475003985
H      2.657344762589     3.420257809441    -1.094451716896
H      1.798994391463     4.922610194469    -2.884830117001
H     -0.649005700937     5.439060809165    -3.016155505844
H     -2.207011793735     4.451718362450    -1.329804367331
H     -1.356363814677     2.961784632767     0.454812898582
C      1.301165018137     2.172067756390     0.831110828268
H     -0.351556726484     0.918344879136    -1.127798136738
H      2.379806195459     2.027425508545     0.726144711992
C      0.634916957571     1.530146095014     1.824529545405
H     -0.439080298004     1.603277306067     1.918494760688
C      1.283062901976     0.654547029349     2.812393093232
O      0.566283947909     0.044460909496     3.652599829495
O      2.684930719387     0.507158902431     2.810476275276
C      3.214818918326    -0.437392743625     3.749724559297
H      4.320676379299    -0.470257502605     3.653243898542
H      2.962833968063    -0.140676316271     4.792994954060
H      2.816237318750    -1.457274446687     3.546750429489
Pd    -0.215476290102    -0.409218745736    -1.828205104849
C     -1.271284194725    -1.294487395873     0.575852076856
O     -0.027848266876    -1.421184071626     0.843956860917
O     -1.775016460514    -1.119870684592    -0.628193791138
C     -2.292225280186    -1.261886069832     1.741450220123
H     -1.814069175186    -0.721427918576     2.562990967903
C     -2.680413564001    -2.643104612472     2.221242952003
H     -3.384524927022    -2.549650491052     3.073915018394
H     -3.181637919609    -3.196871082592     1.402116478733
H     -1.779214434304    -3.198103160206     2.554795108984
N     -3.503557880738    -0.551268948527     1.341399935338
C     -3.513101688122     0.807412534762     1.324232111346
O     -2.558168458180     1.529358447622     1.702391563017
C     -4.741756520550     1.466068538600     0.830113381098
H     -5.104578673121     2.126357088750     1.635724480031
H     -4.465930577319     2.058955186307    -0.056342062279
H     -5.514741585671     0.719197493524     0.577859947351
N      1.706192371367     0.174802264285    -2.203612537964
C      2.131092751911     0.944275565428    -3.253227013417
C      3.461285219547     1.288763542566    -3.360203746399
C      4.370941480092     0.873344680760    -2.412637267962
C      3.918009934230     0.118357607852    -1.363373234825
C      2.548472455605    -0.205560331957    -1.272434086724
H      1.422449245240     1.272899390279    -4.004567467486
H      3.788820096526     1.894195994480    -4.189792333971
H      5.419948446098     1.147572537464    -2.489054745421
H      4.569766205717    -0.209232962252    -0.576497381864
O      2.238532884735    -0.880832724122    -0.190541115351
H      1.255629321916    -1.079058933042     0.102725262915

