# STO-3G

title

0 1
C      1.488818151438     2.619730660039     0.030170365022
C      2.841615428062     2.698007513361    -0.387086045907
C      3.310037626774     3.787493108941    -1.141857502547
C      2.427733109300     4.819797685735    -1.517459106576
C      1.074062329906     4.743936385509    -1.134033125279
C      0.608319442502     3.654608563856    -0.375788884393
H     -2.881008936632    -2.352748629810     1.704293957060
H      3.526077355163     1.897442241807    -0.113653861713
H      4.355168012609     3.826314147757    -1.439130532331
H      2.786931649050     5.662039233040    -2.103411942435
H      0.381896704534     5.529049743785    -1.428939895525
H     -0.446391399019     3.600997688343    -0.119194542681
C      1.055086712080     1.424323269643     0.789500511747
H     -0.585608743547     0.572160032171    -0.569659521028
H      1.583810711482     0.511000132825     0.508462997893
C      0.113883745931     1.275666371009     1.763440127056
H     -0.086361538560     0.279450200648     2.130916542802
C     -0.643838683977     2.338511356415     2.446384749870
O     -1.762245278498     2.046114994512     2.950702318678
O     -0.150984693610     3.655066268771     2.503379158958
C     -0.948283707722     4.598783269711     3.230379252230
H     -0.449516462426     5.591337436214     3.206563477036
H     -1.956394246208     4.702333587664     2.770390309473
H     -1.053628671126     4.287607112396     4.294264933538
Pd    -1.018533692566    -0.254497339152    -1.760818508058
C     -0.614003266269    -2.178833036116     0.223051310672
O      0.597192790584    -1.997819110186    -0.148466751863
O     -1.676650896162    -1.681012357313    -0.373377420481
C     -0.884776588657    -2.984545472505     1.508866451907
H      0.006330784516    -2.918155061117     2.137512884394
C     -1.198709298341    -4.438001314310     1.229757706977
H     -1.342823821134    -4.971827135982     2.192052292339
H     -2.136742486647    -4.509212769809     0.642141564905
H     -0.365146931104    -4.912181216816     0.671913680282
N     -2.014198513763    -2.403516615493     2.227928074775
C     -1.804883476175    -1.580377344099     3.294249293778
O     -0.670728779683    -1.271356681260     3.737235500928
C     -3.009159226481    -1.061614040899     3.977776095507
H     -2.949768706333    -1.375334258820     5.032734650591
H     -2.982748038198     0.038054212838     3.907555140691
H     -3.927523410921    -1.458007202923     3.511666826397
N      0.401918280324     0.774537743824    -2.821651944333
C      0.196674954182     1.858081186971    -3.633422171524
C      1.251581425188     2.414876096220    -4.322028257823
C      2.524224446247     1.907942255337    -4.181415328353
C      2.708446428481     0.830721963501    -3.355744057125
C      1.610813136140     0.292461989809    -2.653204409494
H     -0.800625833744     2.266546484454    -3.747169842642
H      1.082777498455     3.271797890321    -4.953139542951
H      3.363450992342     2.357220926519    -4.705565550407
H      3.679899397083     0.412351620339    -3.181560100680
O      1.938435499551    -0.685721318775    -1.840186913874
H      1.258975687211    -1.174816099439    -1.203688671187

