# STO-3G

title

0 1
C     -1.219931976282     3.857854475225    -0.582079345791
C     -1.349562200207     4.341128830764    -1.907091187832
C     -2.347901063486     5.269871317834    -2.248642733672
C     -3.245878753997     5.729521409788    -1.266469287085
C     -3.139649637026     5.241739025345     0.052857898570
C     -2.143178630130     4.313833516678     0.394372682488
H     -1.615366083262    -1.450158934937     1.664821227040
H     -0.661373097782     3.981879095446    -2.671070242330
H     -2.427385550065     5.629681777348    -3.272249572993
H     -4.021926868586     6.446723833517    -1.525078512474
H     -3.844934938332     5.575790898325     0.811025216037
H     -2.108319589669     3.911106786162     1.401554888566
C     -0.144695510847     2.893058919583    -0.284895858541
H      1.957772900447     0.777805996027    -2.620206331266
H      0.349809321551     2.478533823520    -1.165727268615
C      0.254369992105     2.495436881608     0.949406260388
H     -0.221174050538     2.872123796393     1.840831862307
C      1.310809881002     1.509793326480     1.194196027613
O      1.843042254944     0.902324190257     0.217439156354
O      1.717489598087     1.267685533769     2.518530792523
C      2.668685480585     0.213274560059     2.712494944800
H      2.951771952911     0.170212840538     3.786187177795
H      2.223888610424    -0.768549803375     2.441897277912
H      3.593146284263     0.389966794939     2.117528369057
Pd     1.275122487139    -0.261245941081    -1.747544158673
C     -1.108818775208    -0.522210131978    -0.767455694332
O     -0.198297516335    -1.370845584644    -0.343304881365
O     -0.840916833846     0.257607803031    -1.760117805667
C     -2.433806116882    -0.529090544877     0.016498151472
H     -2.951304271095    -1.465786232177    -0.238828543725
C     -3.353672905736     0.625954952238    -0.309161632634
H     -4.239090919677     0.601570869277     0.358593086166
H     -2.822891974562     1.588783846512    -0.166902101217
H     -3.689578338024     0.562741956524    -1.363834483478
N     -2.102597557362    -0.584712524579     1.450219748523
C     -2.064620582318     0.401231772636     2.397953508797
O     -2.420566057212     1.591488144035     2.265204523619
C     -1.531399244068    -0.039412802244     3.707885447109
H     -1.562990059920     0.814859846620     4.406663695966
H     -2.169171400845    -0.861961695214     4.070843575669
H     -0.490530525646    -0.375680827887     3.562057102914
N      3.082897679111    -1.158342139686    -1.409853424442
C      4.215763089012    -0.911948830995    -2.138495187748
C      5.408048201771    -1.505437904383    -1.783066912381
C      5.473527483003    -2.347864509177    -0.695065175927
C      4.326980290717    -2.574543799148     0.019273951689
C      3.126068070390    -1.946675144242    -0.370968283336
H      4.176145198222    -0.255261502909    -2.999528023724
H      6.295783760810    -1.307893987074    -2.362603553370
H      6.410363077723    -2.820363528792    -0.410811342022
H      4.310081366900    -3.220649387738     0.875079206454
O      2.098224440207    -2.246143702488     0.406219312024
H      1.192173455644    -1.857339187192     0.154542058808

