# STO-3G

title

0 1
C      0.702728200804     3.095473580815    -0.154902427984
C     -0.478011317588     3.867689913188    -0.291853225496
C     -0.556833624025     4.895651448817    -1.249263370850
C      0.540879525065     5.177718676203    -2.083279302867
C      1.727249307984     4.425385267015    -1.945846859778
C      1.807087702455     3.398332869114    -0.993609201515
H     -2.807055163411     0.996366649541     0.348198094471
H     -1.322867758326     3.667416830181     0.365341806763
H     -1.470974362888     5.478359513330    -1.335663483218
H      0.481201785352     5.977038934340    -2.818415258776
H      2.588826651861     4.651777393399    -2.571028252159
H      2.736100024841     2.839679088961    -0.893707056479
C      0.728479872975     2.016403023042     0.860867258736
H     -0.173877804549     0.953678814649    -1.145386405019
H     -0.192547780394     1.917584778133     1.432117824603
C      1.777210658155     1.191482935367     1.112244499414
H      2.690472497793     1.271966790476     0.535179108150
C      1.803604569221     0.126192247887     2.123651788617
O      2.882067725956    -0.499544018717     2.312074467457
O      0.639899945481    -0.195500197476     2.852526904276
C      0.756917807932    -1.321217832630     3.734926572941
H     -0.208169547488    -1.491066285215     4.256193150200
H      1.009835206769    -2.242928914069     3.162350502679
H      1.540292906966    -1.139114380851     4.505588693908
Pd    -0.440972047091    -0.104448509463    -2.182531839691
C     -1.668053087416    -1.126962187474     0.095497348763
O     -0.518180716661    -1.649807070078     0.269945106110
O     -2.114674591718    -0.623594477834    -1.043658342286
C     -2.590529920930    -0.851786157603     1.308026141354
H     -2.084521929688    -1.204603897931     2.209942781913
C     -3.951136086960    -1.501166198591     1.189348252869
H     -4.551567341101    -1.268044971997     2.092051208266
H     -4.477994369479    -1.091638045255     0.301810917520
H     -3.846218530873    -2.600844388226     1.089911918191
N     -2.761520877094     0.610685176752     1.291029380426
C     -2.654430384562     1.532023402425     2.279438364873
O     -2.590606188130     2.767703791885     2.050728556677
C     -2.632825917666     1.050710063406     3.676437728119
H     -1.697963056849     0.492030095294     3.831802041929
H     -2.648886974019     1.932976562689     4.340710245415
H     -3.526044035893     0.427542181436     3.848144987108
N      1.559691492043     0.089615292383    -2.545645918926
C      2.142781647897     0.916825898288    -3.467889297655
C      3.516355938019     0.986653530089    -3.556621510871
C      4.312208165464     0.233123426001    -2.721372980347
C      3.703342542409    -0.577906882953    -1.800291938828
C      2.296648751225    -0.617038296187    -1.723574964241
H      1.523586574372     1.512021008715    -4.129174478811
H      3.969536303047     1.641755184952    -4.283155944561
H      5.396002289015     0.289587732118    -2.783186541431
H      4.267222287387    -1.164008723590    -1.099069894592
O      1.843741278321    -1.381120409532    -0.755261230852
H      0.844036411355    -1.440021529419    -0.492720178498

