# STO-3G

title

0 1
C     -0.191008475240     3.820530801786    -0.401148276515
C     -1.263770628803     3.592615307627    -1.299782484800
C     -1.792369607744     4.640951842998    -2.074081943535
C     -1.262169425475     5.940003777022    -1.965189603415
C     -0.197021034510     6.180444205706    -1.071982310544
C      0.331432498386     5.135198858211    -0.298764235610
H     -2.022814059217     1.816062649804     1.553921092507
H     -1.669377406163     2.587668521295    -1.396860515875
H     -2.613696220518     4.444186378052    -2.759596675226
H     -1.671059816467     6.753118614278    -2.560592419050
H      0.213102123865     7.183612739937    -0.976247546990
H      1.141450036487     5.347059218796     0.394801444758
C      0.325594212807     2.685360283712     0.392413093774
H      0.862883707659     0.751765922352    -0.925830925055
H     -0.269968512699     1.778218393815     0.315507833630
C      1.430796761427     2.686639186857     1.180547879613
H      2.035001829875     3.576586527559     1.284571721016
C      1.905841727007     1.535721710248     1.958277386443
O      2.976270549160     1.663720457644     2.613371282027
O      1.402562427946     0.249995537463     1.662301265823
C      1.897063543646    -0.802467455964     2.504042288891
H      1.393834926089    -1.758036631179     2.247419425342
H      2.993358851855    -0.937409048678     2.364251901475
H      1.686069341729    -0.580250669304     3.575298843778
Pd     0.221105522099    -0.146496701558    -1.951671191202
C     -1.804386686447    -0.489600282771    -0.052784818848
O     -1.032675307893    -1.468937127778     0.246535926292
O     -1.666217031955     0.270454620979    -1.120295328413
C     -2.859486514667    -0.067574661425     1.005825814825
H     -3.172885091385    -0.970364547793     1.538052098805
C     -4.082652736830     0.608160780608     0.426734763623
H     -4.789923370552     0.850310698669     1.246895603285
H     -3.788083678997     1.556927575151    -0.069076884596
H     -4.582245288150    -0.057005718646    -0.306415969083
N     -2.197693984882     0.879673917196     1.913716828861
C     -1.449372242033     0.611332473830     3.029391561606
O     -0.696306718696     1.464291893613     3.554462754514
C     -1.577617841207    -0.726721995741     3.647647275465
H     -1.214406147571    -1.479286659168     2.929526283313
H     -0.952087440863    -0.741829829683     4.557406908433
H     -2.635371572640    -0.884338799290     3.917935458900
N      2.068642663824    -1.004563077429    -2.053267303242
C      3.091125071886    -0.666563096627    -2.899010925143
C      4.301209178402    -1.318592253229    -2.809063149122
C      4.497525599807    -2.307920457115    -1.870672328380
C      3.460933875665    -2.623790999005    -1.031906175589
C      2.237317069642    -1.931490030067    -1.139439850997
H      2.944842374175     0.108342349014    -3.642815037604
H      5.103215025071    -1.046680613667    -3.477069912405
H      5.452259768720    -2.822336519643    -1.794845704132
H      3.557508577006    -3.377150773829    -0.274601623300
O      1.340210247945    -2.313703964723    -0.259621945949
H      0.405053985094    -1.856754603897    -0.169245906263

