# STO-3G

title

0 1
C     -2.407454421348    -2.040365883045    -3.310704336293
C     -3.568937638378    -2.745922034124    -2.879784089261
C     -4.794791729159    -2.077634455045    -2.763431394738
C     -4.889750430860    -0.692553237047    -3.078208216913
C     -3.762442811856     0.007078390921    -3.518688558217
C     -2.509685699296    -0.658951697258    -3.644737176982
H     -1.479004948881    -2.570784393398    -3.489996631160
H     -3.499936140351    -3.807823227006    -2.663947377682
H     -5.682361605066    -2.620984745344    -2.449872566726
H     -5.846032518557    -0.184795387172    -2.985738487338
H     -3.836475882309     1.058467557367    -3.781501028097
H     -1.661972529642    -0.157238851889    -4.098535106501
C     -1.071786743536    -3.921426519188    -0.620624877079
H     -0.788168719181    -4.324076546018    -1.591646956008
H     -2.130056317608    -3.925017469234    -0.374028151977
C     -0.168892996676    -3.410798742650     0.248723598637
H     -0.498010661827    -2.968147829815     1.178053781671
C      1.276611330398    -3.302600776512    -0.003698117714
O      1.752850017256    -3.714218342645    -1.097928725630
O      2.105930082665    -2.781588904098     1.003104659781
C      3.456328123539    -2.495748161375     0.614464813155
H      4.004227892325    -2.069561194096     1.481826033434
H      3.980869934332    -3.421493042579     0.287721154913
H      3.479021530965    -1.743688046604    -0.207381902339
Pd    -1.194490713035    -0.829122467337    -1.560238013275
C      0.827060029864     0.491583589377     0.279215349791
O     -0.065006353387    -0.496426894787     0.060531969055
O      1.020636522021     0.928856193519     1.435982663064
C      1.653974865427     1.047409515291    -0.918218628574
H      2.498741179864     1.549984888020    -0.436591032064
C      0.880853812815     2.094607515411    -1.707492436645
H      1.539960645468     2.521944965188    -2.491799044876
H     -0.001373010432     1.637383138872    -2.194282415889
H      0.548735151156     2.912060303711    -1.034033640568
N      2.217031896975     0.057809936807    -1.838331098041
C      1.585919162940    -0.713378070641    -2.643883645879
O      0.251602496277    -0.849131666681    -2.898625273269
C      2.413174072697    -1.542538625110    -3.533923694170
H      2.213988213768    -1.230325075378    -4.571394787018
H      3.479866272379    -1.397059928073    -3.284817443998
H      2.132496233061    -2.598733535778    -3.382217107740
N     -3.497180828388    -2.468600721627     1.458916825383
C     -3.503348976509    -2.780454912248     2.792977745951
C     -2.917223932055    -1.918537675283     3.704681221103
C     -2.333536691353    -0.740320081389     3.277536251294
C     -2.374773729056    -0.446633850051     1.938621963161
C     -2.967456303993    -1.378784925875     1.069415434406
H     -3.954338087544    -3.706856590999     3.128831536306
H     -2.906253753288    -2.176252004034     4.750833056080
H     -1.855598838786    -0.064159656026     3.981799311277
H     -1.926396065344     0.440108752065     1.539484677100
O     -2.958313042985    -1.049687248137    -0.269444752214
H     -3.540729859636    -1.678397931685    -0.757617594659

