# STO-3G

title

0 1
C      3.622487769820     2.311372401832     1.664562037832
C      3.375048154768     1.164067750848     2.463008618275
C      4.394307618553     0.647532905760     3.277806168213
C      5.667762639251     1.250996697046     3.310784613619
C      5.924295458735     2.384922436065     2.514924060813
C      4.908567950767     2.907866862936     1.699746904671
H     -1.479375734032    -1.026962918538    -0.327899329690
H      2.412136259806     0.661493974043     2.443304577539
H      4.195633403835    -0.233542664719     3.882487993504
H      6.450292259634     0.840883392437     3.944967311664
H      6.904316114028     2.855401289488     2.531972121341
H      5.106625120533     3.786056597520     1.086190325576
C      2.592046067939     2.939694267558     0.811045950303
H      2.873828286387     3.893817321972     0.368798498831
H      1.774569514276     2.783732018142    -1.731982277664
C      1.213087529818     2.581288815163     0.807293145147
H      0.874217216844     1.741417942114     1.400114736974
C      0.136362703755     3.474569620840     0.347943958683
O      0.417262317480     4.375236092752    -0.488186637682
O     -1.192807909658     3.089360241782     0.578339927676
C     -2.201556216303     3.877277014353    -0.068394823859
H     -3.203830054906     3.462908457732     0.175853343302
H     -2.163361956822     4.934040193899     0.280095993900
H     -2.079293188781     3.845539706873    -1.174622036377
Pd     2.187049233997     1.581076149234    -0.899183869242
C      1.423815838215    -0.885202314873    -0.622474818460
O      1.027925419513    -0.221554467379    -1.699305118822
O      2.508936332581    -0.526427987043    -0.034371112806
C      0.472031791690    -1.905250250537     0.027137957889
H      0.975582478411    -2.292730544008     0.917811812864
C      0.094759326073    -3.043649227394    -0.893976085876
H     -0.572280629203    -3.745877053395    -0.352752653986
H     -0.452785084410    -2.644239489275    -1.773483883503
H      1.002568320078    -3.584749158492    -1.230119295866
N     -0.760471892736    -1.210883166830     0.420830852435
C     -0.768575553100    -0.458668348470     1.547968940674
O      0.237545715675    -0.216351780588     2.273402534995
C     -2.077021180645     0.085493911852     1.971675102511
H     -2.295389475451    -0.324969859953     2.970775230430
H     -1.985924276987     1.180709409957     2.021891818636
H     -2.868743148054    -0.203120586762     1.259804167833
N     -2.568600514987    -0.371530136227    -1.524544754003
C     -3.875417734499    -0.771689731363    -1.463851540675
C     -4.864344826098     0.000786059685    -2.045771659903
C     -4.543155263611     1.170048314593    -2.701382009541
C     -3.225785892162     1.544845562452    -2.757354194317
C     -2.252065677087     0.721439028723    -2.147316167379
H     -4.132258819485    -1.689070932511    -0.947160841378
H     -5.890234285757    -0.322801185221    -1.987945738624
H     -5.315126800551     1.776089221379    -3.167769630372
H     -2.904112061500     2.428297384754    -3.268801514686
O     -1.010049171778     1.173373481199    -2.281637379408
H     -0.258257378051     0.535774258651    -2.011544579758

