# STO-3G

title

0 1
C      2.128879304341     2.525235069141    -0.491248410486
C      3.338788223744     2.819012121558     0.168350537640
C      4.392229654595     3.432825209070    -0.538659475796
C      4.247639971574     3.744133564453    -1.904914921250
C      3.042504744649     3.437831938138    -2.562986395420
C      1.977954323003     2.836378954373    -1.857686577459
H     -0.437019302777    -2.025671732217     3.325382936428
H      3.476902103096     2.541903861177     1.209811377118
H      5.325391754936     3.652735951674    -0.024353696949
H      5.064871605050     4.211682142432    -2.448978599362
H      2.921900795216     3.665405097747    -3.620088743654
H      1.057031529992     2.606747994218    -2.388993471261
C     -0.331529621686     3.411867933716     1.161890511366
H     -0.886598794964     3.103889555114     2.042479556102
H      0.492635938927     4.101846741940     1.309379226702
C     -0.812211017890     3.144481384043    -0.128818776141
H     -0.300237007862     3.595265599043    -0.964381050239
C     -2.152269008410     2.618312069830    -0.448121939476
O     -2.526787237703     2.669257828189    -1.649794333365
O     -3.068267736329     2.349342259346     0.583531826691
C     -4.335569834334     1.824192941426     0.163114701606
H     -4.968829144244     1.630875146012     1.055149605156
H     -4.869843618388     2.550618205762    -0.490216221374
H     -4.200380359112     0.862036427089    -0.384083001032
Pd     0.710271902367     1.589580166400     0.550964287690
C      1.795536980321    -0.949183888741     1.620344663384
O      1.796098212355    -2.153519658992     1.215390142890
O      2.159315097909     0.088540879745     0.904419674844
C      1.193773365238    -0.651015153860     3.038957586646
H      1.233421072790     0.426858063650     3.224565770197
C      1.916154354221    -1.378790462135     4.149909334537
H      1.432612615056    -1.146826570012     5.121322043913
H      1.858692104026    -2.473665935405     3.973796385882
H      2.979985051233    -1.067100023995     4.183780728035
N     -0.213157445489    -1.081676598548     3.036590398141
C     -1.136580448403    -0.387935120063     2.352339452045
O     -0.910389297225     0.694453379943     1.740313507424
C     -2.503956373223    -0.930478191959     2.349650429302
H     -3.154873999434    -0.252571619296     1.774371724077
H     -2.464953307855    -1.917859017561     1.856863011410
H     -2.847333920408    -1.020479080438     3.393794575426
N     -1.766179871003    -0.694055404049    -1.594250466380
C     -1.834711237277     0.026891343315    -2.756622395698
C     -0.679780665381     0.313978494733    -3.464602512657
C      0.544361647451    -0.134761725721    -3.019552494127
C      0.587395236985    -0.850918749878    -1.852498623375
C     -0.633643489402    -1.125822240484    -1.176734310565
H     -2.794931137236     0.380027567335    -3.114358822777
H     -0.750737934537     0.886417102239    -4.374594351592
H      1.453533887364     0.081680334685    -3.574837810869
H      1.517297140736    -1.227108601386    -1.469592497441
O     -0.565541560920    -1.877260513807    -0.046446731987
H      0.345627567322    -2.147179988238     0.243646128378

