# STO-3G

title

0 1
C     -0.548367492354     2.670137068969    -0.400504964267
C      0.486097633986     2.866599799768    -1.333466642928
C      0.505977742660     4.041074949158    -2.115840369338
C     -0.497314237749     5.016090766303    -1.962310472007
C     -1.531382504260     4.810125963302    -1.028109241332
C     -1.561092724445     3.637540035279    -0.245828830244
H     -1.705248432364    -3.661413108559     0.887522676905
H      1.265346714486     2.120673912418    -1.471010431202
H      1.304266751942     4.184893991631    -2.840894476532
H     -0.478588676652     5.919433973871    -2.567282496828
H     -2.318221217977     5.552197265573    -0.909932131022
H     -2.374747849829     3.481475893580     0.459716890617
C      1.372487709150     1.084282960048     1.438013625338
H      1.997149705440     1.610256797125     0.724122331490
H      1.540977226452     0.014314197307     1.498154243994
C      0.585243360218     1.763198613854     2.379810643231
H      0.100172649835     1.193914142650     3.160738907930
C      0.572704397245     3.225793054387     2.551674948975
O     -0.255828025742     3.731439045029     3.352581201333
O      1.399323427390     4.027157444722     1.745561214164
C      1.162689879471     5.439760347530     1.811507022893
H      1.865236914587     5.961274980575     1.126665689738
H      0.125147716907     5.680242635277     1.485715224585
H      1.328616914823     5.823149751466     2.843674787608
Pd    -0.709757429441     1.030887038377     0.697063818242
C     -2.106947292890    -0.958974487345    -0.690041781206
O     -1.249970946333    -1.466995473255    -1.492392424838
O     -2.326115181945     0.316200732689    -0.511563410394
C     -2.838764209708    -1.997807185828     0.232511649311
H     -3.279927607664    -2.762609343148    -0.415847605234
C     -3.911983650517    -1.415901485331     1.127539987628
H     -4.364591548736    -2.226793559900     1.734798890586
H     -3.471186717772    -0.662395089558     1.810342447823
H     -4.700402691575    -0.936354644855     0.511976700571
N     -1.824107191531    -2.674356286156     1.071412130322
C     -0.924038356390    -2.042432283647     1.843319324215
O     -0.851137901537    -0.788823864873     1.998669137833
C      0.051849130966    -2.870274906794     2.579301250977
H      1.054377257575    -2.619522280036     2.189553967188
H     -0.025495834377    -2.611961507928     3.647721075418
H     -0.147256869889    -3.946207289073     2.434078490940
N      3.235244635054    -0.877422335465    -0.252023037798
C      4.332455959831    -0.269256827185    -0.798655111801
C      4.278633349134     0.226305726948    -2.089453530045
C      3.132360963547     0.092764450605    -2.843845709310
C      2.048812566311    -0.527647181735    -2.276811962254
C      2.163441687812    -1.014545141089    -0.946116051903
H      5.236996833597    -0.163394640591    -0.211233081144
H      5.147523664737     0.707177903356    -2.507807197712
H      3.088757436619     0.470772889800    -3.861984935242
H      1.136756876004    -0.666071568161    -2.825373484163
O      1.080032741319    -1.619306174081    -0.410076050374
H      0.230466678684    -1.596951517201    -0.951938913925

