# STO-3G

title

0 1
C      2.416365238215     1.598505371316    -0.161810337952
C      3.643327377082     1.044455817851     0.253571027844
C      4.832234578376     1.397185362721    -0.416075252057
C      4.800652930464     2.293732830240    -1.502434538774
C      3.570351490788     2.831889418540    -1.921260492561
C      2.376909236642     2.489410082723    -1.250728120867
H     -1.836019190053    -2.649250244853     2.908640645191
H      3.670384596588     0.320004129578     1.062641208803
H      5.776227648614     0.962101193796    -0.094421350964
H      5.719786039894     2.561219718494    -2.018527574311
H      3.527445356663     3.514159131944    -2.768049027912
H      1.436600288635     2.901683148106    -1.607099432427
C      0.849177808429     2.722570401546     2.130427102237
H      0.410564781610     2.373050366688     3.060822489327
H      1.898838387672     2.992757334917     2.149429343255
C      0.037607476804     3.084784465824     1.036374671219
H      0.494127967327     3.576869311624     0.191154977966
C     -1.432661645080     3.204839544174     1.082413131225
O     -2.011559466803     3.717034430034     0.088192144527
O     -2.102031162734     3.068698961587     2.313289155843
C     -3.497955460115     3.402624541158     2.304817287174
H     -3.920125869594     3.252921555020     3.321632684975
H     -3.647530604296     4.469727349212     2.022917999435
H     -4.055983883788     2.751793414151     1.593422064776
Pd     0.791078988298     0.998355732344     0.817197342595
C      0.342238176891    -1.778521644917     0.671004939945
O     -0.586665410172    -1.945111968531    -0.179173429277
O      1.408342061710    -1.029815351500     0.520273246417
C      0.149247432559    -2.378253670839     2.104852500283
H      0.945159442212    -1.975082867861     2.740823791783
C      0.207499100013    -3.890020031207     2.117533247229
H      0.083967423955    -4.259950717249     3.156183945407
H     -0.614187480277    -4.292861595805     1.488664070406
H      1.182037766406    -4.238300203168     1.718061554571
N     -1.166985928415    -1.951659673442     2.610846716887
C     -1.576996073994    -0.672254874983     2.563142369286
O     -0.916725659285     0.300044513286     2.103460492350
C     -2.922256710764    -0.407389228794     3.108214803250
H     -2.937875670345    -0.747236010878     4.157288594727
H     -3.123652765040     0.673905155226     3.049827243607
H     -3.653224840160    -0.970074290305     2.501420806419
N      0.282786218512     0.165489445652    -3.027990497690
C      0.816623197374     0.686817697490    -4.175018154647
C      0.427433936345     1.943145517140    -4.610320775907
C     -0.506597082425     2.669984235708    -3.900196108608
C     -1.012650198791     2.125707064552    -2.748351907444
C     -0.571000591787     0.843297949733    -2.352815006158
H      1.542920800984     0.113853387385    -4.739335799165
H      0.848708192342     2.342720219482    -5.517350741537
H     -0.829121913131     3.649770428434    -4.241815242592
H     -1.748809299816     2.627145981397    -2.152174940900
O     -1.113744469963     0.404443582900    -1.192279401826
H     -0.881447573279    -0.561498857647    -0.987284284377

