# STO-3G

title

0 1
C      0.595461982821     4.225028920405    -0.059759724802
C      1.402779366207     5.368710508024    -0.282170395130
C      1.000051264204     6.382486967586    -1.167963496435
C     -0.224831722336     6.270829032901    -1.853139895971
C     -1.033792350742     5.134521022579    -1.645435749770
C     -0.632576067926     4.119586867344    -0.761743864365
H     -3.138393643926     0.464146778552     0.973581944703
H      2.349641274166     5.462050575274     0.248452097213
H      1.633635939202     7.253354216508    -1.320071120474
H     -0.543384129780     7.053044673649    -2.538453407469
H     -1.976966708084     5.037891924500    -2.178845922906
H     -1.255058270422     3.239467923942    -0.643546208488
C      1.078412066194     3.208727733967     0.904333268094
H      0.416820196804     0.210448768288    -1.323516994051
H      2.022853355833     3.470168803524     1.388758404663
C      0.344444633771     2.136066523259     1.431106347448
H     -0.678377044648     1.959829565182     1.141346016912
C      0.831815941718     1.322180722664     2.547845449728
O      2.058650180227     1.028226552380     2.526608103562
O     -0.084897087326     0.530993186276     3.252293480315
C      0.470079707638    -0.509985458898     4.070896657606
H     -0.353069662934    -1.061220163458     4.577086056239
H      1.027412408595    -1.248379045211     3.450832146193
H      1.141592058305    -0.090028718452     4.853083463974
Pd     1.841570602647     1.445221543873    -0.178183973867
C     -1.409593353566    -0.113322224043    -0.682762163630
O     -1.788340798945     1.074679369758    -0.729895827790
O     -0.247640882530    -0.548179780693    -1.232376768518
C     -2.170283091206    -1.183274931286     0.112060140916
H     -1.468412739062    -1.915007164145     0.520565677817
C     -3.216531483936    -1.896871330106    -0.715170227861
H     -3.720809614880    -2.660735361026    -0.087846371379
H     -3.973833976188    -1.162341031829    -1.059313936925
H     -2.744528131584    -2.391486694498    -1.588659696149
N     -2.837382021444    -0.477969539269     1.204750798523
C     -2.753931073830    -0.932264805374     2.486658403780
O     -2.194137518927    -2.001570794723     2.826860064158
C     -3.405635271211    -0.101990912025     3.524202993859
H     -4.146710421246    -0.736233556227     4.037333077167
H     -2.621780532120     0.224896255763     4.225291472628
H     -3.901906737204     0.773637727742     3.070402389575
N      2.830194066714     0.059878396089    -1.427305056373
C      3.223349950387     0.327478632514    -2.712432480022
C      3.923955125008    -0.621599175209    -3.429608563691
C      4.221622646329    -1.846938031637    -2.869341709482
C      3.813919734632    -2.088408402697    -1.582740089826
C      3.108953513946    -1.088269698465    -0.889641222774
H      2.985593158834     1.284577256506    -3.162728986071
H      4.227558091395    -0.405771949567    -4.441639606456
H      4.763365464455    -2.601653278338    -3.433772940177
H      4.002589596592    -3.021129762862    -1.088143923097
O      2.739154323469    -1.413172802721     0.347830110241
H      2.279125126733    -0.621169283391     0.764827807550

