# STO-3G

title

0 1
C     -0.017056064360     3.717759053518    -0.105652441035
C      0.265499562900     5.099395206946    -0.234410676827
C     -0.572267012663     5.948318352029    -0.979057729170
C     -1.712311950188     5.430064946581    -1.621493590055
C     -1.995688871521     4.052765650384    -1.519361120644
C     -1.157601909824     3.207072012830    -0.775191626467
H     -2.724805054643     0.669532529194     0.141357819467
H      1.142703546310     5.510729712038     0.262560341959
H     -0.337194466654     7.007354467269    -1.057086942427
H     -2.361531112954     6.082686330703    -2.200200448158
H     -2.860601213743     3.639902249835    -2.034633312200
H     -1.358038105060     2.140105666597    -0.752001978299
C      0.886197451127     2.883240409666     0.724866057154
H      0.165120966385     0.179130982002    -0.967219980910
H      1.806307767474     3.385332965126     1.030459066132
C      0.516267430449     1.708471255722     1.404728636558
H     -0.493505058054     1.335087060254     1.345106594738
C      1.346020263734     1.075547317244     2.435735971902
O      2.592966713426     1.091216183040     2.249047396963
O      0.750772600070     0.134593945062     3.285668653284
C      1.643215111354    -0.683364809313     4.053723279432
H      1.046913279356    -1.371521364877     4.691756643321
H      2.283448448030    -1.303911851239     3.385946523116
H      2.283790531437    -0.060082319638     4.717342940601
Pd     1.805958981412     1.197860831493    -0.359210498264
C     -0.763067911830    -1.092873311702     0.255285594494
O      0.275003646904    -1.626352065012     0.697390973514
O     -0.771350165216    -0.256751302202    -0.817353155275
C     -2.138927483167    -1.205982709895     0.928498270827
H     -1.998892929178    -1.586294229184     1.943953876258
C     -3.090027737485    -2.108330146042     0.174098424413
H     -4.051016465328    -2.169088400607     0.725626105222
H     -3.283447383829    -1.680976009956    -0.831333425798
H     -2.659189777015    -3.125829474827     0.076088973435
N     -2.722008860532     0.133833219992     1.001560653769
C     -3.036561698836     0.709074076777     2.199004786918
O     -2.930177483981     0.151377404798     3.311765907541
C     -3.530757223087     2.099018918473     2.114152647262
H     -4.433079064208     2.098959233012     1.480608325059
H     -3.769906747652     2.448691388346     3.133213638501
H     -2.738832237439     2.725509433884     1.667445183000
N      2.934095858043    -0.071912643848    -1.592113587590
C      3.556126189482     0.494284090942    -2.674362082861
C      4.548322585304    -0.193034915746    -3.341028009646
C      4.917931675133    -1.456548637738    -2.934960154928
C      4.269373797303    -2.006747019904    -1.861495234592
C      3.255933578448    -1.273446694700    -1.210104418255
H      3.275390929951     1.490056934980    -2.998080850861
H      5.035885228962     0.263031794554    -4.187806700258
H      5.698118272927    -2.004976232579    -3.456628946261
H      4.497835050005    -2.991377935950    -1.502625130795
O      2.687824376869    -1.933454145229    -0.213691220657
H      1.825797811180    -1.581096557075     0.176776643937

