# STO-3G

title

0 1
C      0.406364060380     4.401372298135    -0.345789126893
C      1.341848668130     5.117407360823    -1.135366734301
C      0.918996234855     5.998903556846    -2.143169766723
C     -0.456814042119     6.190824644354    -2.377850340061
C     -1.397038875504     5.492615019170    -1.594315655789
C     -0.973569234331     4.609192568610    -0.588341867799
H     -2.829772065560    -1.166857973396     1.279477118665
H      2.406869454682     4.973404256940    -0.957330255584
H      1.654508924442     6.533727187376    -2.739498342375
H     -0.790473476810     6.872406455657    -3.156618229818
H     -2.460783560134     5.632891841513    -1.769663056284
H     -1.720328867626     4.079954936829    -0.005629732036
C      0.929497456879     3.512062777235     0.719208984268
H     -0.635529881081     1.591276579348    -0.908774099904
H      1.966542938533     3.723740476109     0.989639395861
C      0.180152962105     2.667729803615     1.559966010949
H     -0.891386123648     2.584398964052     1.452859858579
C      0.737558578632     2.072996848097     2.782669761108
O      1.954304008895     1.744467166969     2.753391905540
O     -0.136664235857     1.537285612678     3.739606140033
C      0.483307447821     0.838423519437     4.828618203780
H     -0.299710090327     0.493015137876     5.537690552557
H      1.038712128996    -0.055033054717     4.459995809708
H      1.180236674337     1.505765561193     5.384734989303
Pd     1.337590491160     1.408351404795     0.123666728629
C     -2.265876052511     0.549895505866    -0.452953745705
O     -3.474442013350     0.569919588813    -0.180497506654
O     -1.641465051634     1.618859787715    -1.032234323835
C     -1.367407484873    -0.664803198438    -0.130876363963
H     -0.328821158645    -0.346010781337    -0.000061364236
C     -1.427134509646    -1.721822749794    -1.212583283457
H     -0.739079444619    -2.553959789549    -0.955547716062
H     -2.462168356768    -2.119447093368    -1.274376284811
H     -1.133262199744    -1.291893096589    -2.192254913261
N     -1.830603354085    -1.246264238496     1.121354052719
C     -0.951607416173    -1.646111545237     2.074048173095
O      0.299599483331    -1.608620662770     1.949298157580
C     -1.527351225815    -2.172967510404     3.329705352702
H     -1.140749688976    -3.195831331201     3.469545441703
H     -1.197479274668    -1.516277951239     4.148142804624
H     -2.630837293171    -2.188860799308     3.277158150719
N      2.032727948845    -0.331539836943    -0.846753165216
C      2.504858855586    -1.430865488153    -0.176130896343
C      2.839647928292    -2.568491600283    -0.884748394023
C      2.697623610023    -2.611407959018    -2.256761923914
C      2.225248420397    -1.492969046087    -2.896270066025
C      1.899806307951    -0.359461403662    -2.132357009176
H      2.630914514777    -1.399984286199     0.899832953337
H      3.203888264431    -3.432524080444    -0.352116856197
H      2.952592933698    -3.508263811085    -2.815553741801
H      2.083984456006    -1.458141019002    -3.958967327344
O      1.416816388862     0.677977004169    -2.825313035619
H      1.205673110176     1.420717125752    -2.179729316724

