# STO-3G

title

0 1
C      0.666785561311     4.041210445713    -0.179769642072
C      1.756809219967     4.758943605632    -0.734956170306
C      1.579958955648     5.616319997873    -1.833296769793
C      0.302000692658     5.776117286021    -2.402567898759
C     -0.790282501433     5.067800490884    -1.861931604147
C     -0.614705624981     4.210711527134    -0.763657701011
H     -2.048576759812    -0.356496014487     1.480785480070
H      2.748334424259     4.638395415205    -0.300599622624
H      2.431574899108     6.153769468693    -2.243559090963
H      0.159542062127     6.434791645966    -3.255712726202
H     -1.778346839963     5.175365473754    -2.302505936340
H     -1.471590737430     3.662942331236    -0.385825964861
C      0.929576979978     3.180713420570     1.001011920075
H     -0.919257600916     1.112553275034    -0.140478901108
H      1.935483194981     3.303224254568     1.406891396281
C     -0.035396714479     2.516528259901     1.796985936880
H     -1.084496038850     2.598715976029     1.550579874098
C      0.244159295839     2.085322527839     3.172375809587
O      1.377314519658     1.585693627571     3.405519359872
O     -0.829004636891     1.883784784898     4.052272421321
C     -0.479395157889     1.499129554050     5.389940685798
H     -1.406951685876     1.383496862427     5.992311142690
H      0.061447157582     0.526080580859     5.401383278322
H      0.151193303694     2.278817331378     5.874364155858
Pd     1.047926206295     1.059672754274     0.511553248710
C     -2.398580342355     0.060689152863    -1.042691204178
O     -3.346237186040     0.082268682066    -1.830945663255
O     -1.830442603905     1.233354613216    -0.589344434327
C     -1.762237851121    -1.223368679038    -0.442709063682
H     -0.817218107530    -1.430659543167    -0.962523718718
C     -2.663171528136    -2.432264826015    -0.567685964111
H     -2.154033464576    -3.325653489196    -0.150691205463
H     -3.599771117315    -2.251557033071    -0.001428568103
H     -2.907505632337    -2.619870753147    -1.633933233248
N     -1.459805651336    -1.010632327225     0.979959406655
C     -0.425221815993    -1.650553471911     1.591712612540
O      0.379259393708    -2.412089735493     1.005013389189
C     -0.277754772698    -1.451564007984     3.048777609907
H     -0.366846328494    -2.444338250287     3.521892695451
H      0.724751122462    -1.034882941992     3.238465471798
H     -1.066147483664    -0.784483070036     3.439567282379
N      1.895044146764    -0.278291394104    -0.923906662626
C      2.578614526581    -1.431547360319    -0.632570981231
C      3.085669681769    -2.207380240580    -1.656871339589
C      2.893977220819    -1.846174266247    -2.973605278553
C      2.206041426434    -0.689530722963    -3.234396255242
C      1.717712190636     0.073015505653    -2.158392827914
H      2.746900814568    -1.718174794496     0.398851499056
H      3.617434301934    -3.114347664422    -1.418286884872
H      3.279584033239    -2.461151488350    -3.782669772901
H      2.018417783951    -0.348190085368    -4.233869712472
O      1.058136186483     1.178047934291    -2.515277231396
H      0.758846129021     1.676898058747    -1.701376570633

