# STO-3G

title

0 1
C      0.177669354401     3.764512577658    -0.101744087515
C     -1.116493410435     3.325436875083    -0.477840903468
C     -1.984975988724     4.170968553072    -1.186461844269
C     -1.585074729725     5.475078560140    -1.542815232539
C     -0.298273381493     5.920492377599    -1.186862805196
C      0.570561492673     5.072157902240    -0.478525846871
H     -3.496936838981     0.271774407875     0.128584550778
H     -1.428416562751     2.311692538748    -0.245946999884
H     -2.971103437188     3.812033345678    -1.475379808670
H     -2.259946115820     6.126259186161    -2.093397230219
H      0.026498412773     6.922346230818    -1.458926625696
H      1.563349348398     5.426848644285    -0.205365467958
C      1.140077744491     2.927784363823     0.655858662482
H      0.030140348173     0.291294563941    -0.789918094731
H      2.128313266115     3.380455093984     0.765409324882
C      0.819989732046     1.829018997987     1.473031343652
H     -0.201159468909     1.520946140468     1.625626522738
C      1.787130630078     1.196362224379     2.378631762649
O      2.980072945406     1.131582727770     1.972621426224
O      1.314970051443     0.327435325464     3.372223648416
C      2.297254506971    -0.495828036160     4.015143336258
H      1.798563011029    -1.123057660211     4.785471184873
H      2.783022640281    -1.177581063225     3.280198449266
H      3.070244128989     0.126798131397     4.519158547304
Pd     1.797455149237     1.136479087344    -0.447359093705
C     -0.883831464714    -0.902503623368     0.519138992223
O      0.158834765506    -1.443512818314     0.947971996903
O     -0.920238014086    -0.091165493979    -0.561244013952
C     -2.248076251871    -1.055287350088     1.217756064193
H     -2.034618790334    -1.181579703745     2.283473178561
C     -3.017519697674    -2.259046833861     0.719093434796
H     -3.968823632551    -2.346611316161     1.283669175896
H     -3.251976066549    -2.128812808486    -0.357222075395
H     -2.421247487780    -3.183612541892     0.863674053570
N     -3.078467484958     0.129760040360     1.039174374196
C     -2.964210608103     1.171823474752     1.915085379131
O     -2.164390652380     1.190671570315     2.878392886246
C     -3.851587011488     2.334383519590     1.698545871168
H     -4.465236792982     2.452601519946     2.606614316725
H     -3.208942276996     3.219589412337     1.556854213270
H     -4.497460957606     2.176969295041     0.817620530790
N      2.667935078054    -0.302988568953    -1.702379041877
C      3.215814519542     0.127096872109    -2.882688296247
C      4.075104958123    -0.690667001744    -3.585942317006
C      4.383174937384    -1.949232986763    -3.117668344963
C      3.808871299220    -2.361915829160    -1.944758363988
C      2.931879532698    -1.496949563940    -1.257702027729
H      2.982703669140     1.117609857358    -3.256425749681
H      4.506297696230    -0.341029646529    -4.510323959054
H      5.058518027679    -2.599795127971    -3.667437845136
H      3.995043699662    -3.333845097279    -1.531266238570
O      2.422281011620    -2.028971748147    -0.157721363871
H      1.640760505191    -1.566727750975     0.289193896515

