# STO-3G

title

0 1
C      0.171951521402     4.045042900857     0.793741708466
C      0.924755712511     5.051609723436     0.137602869921
C      0.294637800284     6.147304450486    -0.475048820160
C     -1.108476053694     6.264333878601    -0.435227329787
C     -1.867477737589     5.275703014850     0.223629010830
C     -1.238981252844     4.177536946402     0.833857141780
H     -1.218906533540    -0.865591021064    -0.885933370913
H      2.010644730523     4.967954177927     0.108195240950
H      0.892373910671     6.907251542127    -0.973134245235
H     -1.600911442486     7.114853649339    -0.900989404854
H     -2.950524011679     5.363987992640     0.268933525515
H     -1.847945060298     3.427109852922     1.328395312073
C      0.908373996656     2.926346256127     1.430558917270
H      0.693799075422    -0.716307784271     0.509950605042
H      1.971029743378     3.128265626791     1.588419963773
C      0.346311519240     1.793724463881     2.041231896524
H     -0.722165353848     1.648877254722     2.058965513284
C      1.115902445574     0.875321854332     2.888406665051
O      2.336163703963     0.730481524679     2.605474267893
O      0.413770868663    -0.108628267391     3.599283377533
C      1.202016322620    -1.171538377414     4.155865214366
H      0.533718661832    -1.891480147213     4.677302729655
H      1.736764833707    -1.734110843293     3.355562110781
H      1.939024126124    -0.779293754403     4.891922198879
Pd     1.185951450295     1.295493569552    -0.019607373807
C     -0.429281714269    -2.230196839051     1.300808713984
O     -0.389352745774    -3.305831181866     1.904978407045
O      0.705939461059    -1.705065788544     0.729130778862
C     -1.729886231141    -1.399150279296     1.119155098337
H     -1.861281917923    -0.768094208843     2.007804028343
C     -2.953747378786    -2.278648977636     0.978479149572
H     -3.861057208046    -1.645803545876     0.890325769153
H     -2.856470219441    -2.901087311959     0.066092055008
H     -3.059141413511    -2.936654563890     1.866230205995
N     -1.665577035177    -0.514051783509    -0.049084911620
C     -2.193685466951     0.738295752721    -0.014871790548
O     -2.709707967838     1.260192072430     1.000755354620
C     -2.136508975127     1.495991744500    -1.280935595145
H     -2.659425332634     0.904674915413    -2.052124384422
H     -2.650843427955     2.462967645833    -1.132737445179
H     -1.084037330600     1.665759370230    -1.550958992092
N      1.941607196996     0.147752872493    -1.633467827734
C      1.297375728041    -0.171730691528    -2.799776591723
C      1.976217268722    -0.828053352521    -3.806732141085
C      3.297787890410    -1.187495822595    -3.644238442909
C      3.916357470734    -0.866556633840    -2.464093317383
C      3.183744325643    -0.198131290699    -1.466516232111
H      0.257275039478     0.098787192536    -2.935943973262
H      1.460866139548    -1.076930515629    -4.720611869906
H      3.833051280634    -1.715736988581    -4.429155981545
H      4.936349167415    -1.130315921797    -2.263428795580
O      3.860193164440     0.051756670944    -0.350823245469
H      3.244057961997     0.493742867219     0.321875040271

