# STO-3G

title

0 1
C     -0.029680250751     3.505200515861     0.177927584842
C      0.624829712367     4.662221035414     0.669053579971
C      0.491949297135     5.896589001228     0.012256053316
C     -0.300618803620     6.005713113110    -1.148478080271
C     -0.958876976461     4.863749755475    -1.645371373153
C     -0.826396674868     3.628639769193    -0.988704285885
H     -3.102243311446     0.684210136813     0.010356575064
H      1.232059863076     4.603089433316     1.568837014911
H      0.999037614762     6.774882595265     0.406222495149
H     -0.404620252666     6.963684441860    -1.653023496760
H     -1.571773083372     4.936138632959    -2.541340870084
H     -1.314214822099     2.742920794115    -1.388647232751
C      0.057277072091     2.181555555460     0.842817301112
H      0.426370172824    -1.110370786217    -1.881632561554
H     -0.748275174625     1.502962923170     0.576810301172
C      0.896015533572     1.860183495601     1.919170113015
H      1.565432266511     2.590906285953     2.343780647650
C      0.787181916516     0.608660815791     2.669706370555
O      0.867382817335    -0.433952940762     1.965274998651
O      1.254041328611     0.597656482109     3.990512143347
C      1.051274469631    -0.637003568091     4.692498322853
H      1.408536844000    -0.529002037909     5.739216730436
H     -0.032288041221    -0.900404356119     4.723293275686
H      1.620354236629    -1.467684461005     4.216889442589
Pd     1.676642133460     0.954071368252    -0.020796213508
C     -1.222368708976    -0.667823018758    -0.953654876914
O     -1.442962287137     0.379416209962    -1.587268484004
O     -0.232431549114    -1.549709811459    -1.293348361648
C     -2.019916744776    -1.088657684206     0.289326131791
H     -1.333062241073    -1.418704088425     1.073680558814
C     -2.999751199716    -2.204701877246    -0.001640455832
H     -3.531853554886    -2.479203967437     0.932520212746
H     -3.744198098719    -1.853917014332    -0.745754004680
H     -2.465158743465    -3.094446131280    -0.393753973910
N     -2.769304250883     0.077541054342     0.752353983935
C     -2.720124619996     0.492084170644     2.050142942881
O     -2.096774337050    -0.091673501528     2.965988728170
C     -3.431591984772     1.749408316473     2.367209054592
H     -4.145694087204     1.532258391849     3.178364641164
H     -2.676693197028     2.481203492716     2.699734853905
H     -3.967773016234     2.134168563952     1.481629403764
N      2.683671341173     0.009343939055    -1.622153620215
C      3.019609993579     0.670462613146    -2.774113709807
C      3.918616847725     0.102120660202    -3.654779038933
C      4.471243262009    -1.135478127805    -3.394589170875
C      4.112246308076    -1.776927183019    -2.236872396932
C      3.195186789614    -1.157313608342    -1.368684104496
H      2.583347013765     1.639635328376    -2.988706818493
H      4.177097109931     0.626499369272    -4.560962028219
H      5.170672217204    -1.591224440984    -4.090779835206
H      4.492874156492    -2.745074381895    -1.976548306947
O      2.893165573643    -1.855366094995    -0.274017083638
H      2.230324369032    -1.333370850761     0.277961864247

