# STO-3G

title

0 1
C      0.188304044739     3.649197321083     0.263889067575
C      1.198078677099     4.638349371243     0.381010718140
C      1.126708601426     5.829445280545    -0.357269796904
C      0.046927755646     6.061598627753    -1.234649731554
C     -0.960332379084     5.087372521049    -1.363957295651
C     -0.888009547775     3.896256813114    -0.622267028610
H     -3.673236512176    -0.339179284142    -0.040781767230
H      2.044251583125     4.478037708807     1.044429105577
H      1.909278616939     6.577731247299    -0.252262036797
H     -0.005393434613     6.984654608214    -1.807207951582
H     -1.795399219302     5.250418142632    -2.040812697599
H     -1.670771812371     3.149424219523    -0.737523144283
C      0.201024662088     2.383817924197     1.036689830923
H      0.286549189629     0.703659352281    -1.256537437752
H     -0.690808803935     1.773696887953     0.929998571523
C      1.082982361254     2.080534649819     2.078791612287
H      1.821980887980     2.795572737246     2.403756901179
C      0.941246657485     0.902018338398     2.934321722597
O      1.065116195228    -0.195940692812     2.323519356667
O      1.378231849032     1.009980682921     4.261967917459
C      1.219212206352    -0.174438661515     5.055366262058
H      1.550837288695     0.033023750415     6.095815648705
H      0.149577501883    -0.486191659313     5.089431608417
H      1.837800388163    -1.010138344056     4.656634425059
Pd     1.780787641592     0.959796719931     0.231357733533
C     -1.636861075353     0.203405190148    -1.494630056113
O     -2.701759397336     0.387210463832    -2.103476828624
O     -0.454186985961     0.704172557354    -1.952338723278
C     -1.605881578295    -0.602508138329    -0.162941121624
H     -0.758619676276    -0.306218619132     0.460206285322
C     -1.531721141799    -2.092777006563    -0.414779470906
H     -1.475986283572    -2.630090546098     0.554441899727
H     -2.449390511184    -2.418092152206    -0.949012073964
H     -0.642357356536    -2.342488128295    -1.028087296063
N     -2.850015232327    -0.323517203727     0.551145715868
C     -2.877274571999     0.184132307658     1.812033541024
O     -1.864104890885     0.458349760378     2.501424728673
C     -4.212989506790     0.442656304637     2.391744590764
H     -4.286568196758    -0.133456494449     3.328491033811
H     -4.279146875852     1.523805008921     2.596643512908
H     -5.012193842218     0.136556215103     1.693397965158
N      2.571162294098    -0.140221746837    -1.377611509185
C      3.139078530754     0.448889224644    -2.477086530011
C      3.671681753453    -0.337582917013    -3.478797103080
C      3.619261898734    -1.713736853242    -3.394437066334
C      3.034180723687    -2.274125662575    -2.287704411446
C      2.510050181955    -1.431394469052    -1.291768047195
H      3.175725660691     1.529717662073    -2.554287037817
H      4.114293170984     0.131512238189    -4.343241513567
H      4.025343195003    -2.336932774208    -4.187202541764
H      2.945653522138    -3.335837030575    -2.164476226892
O      1.927196049798    -2.062471116795    -0.270522456802
H      1.578279991339    -1.372486008140     0.377074089704

