# STO-3G

title

0 1
C      1.843784264188     2.333655272198     0.042804017634
C      3.242332387699     2.246681927945     0.166503023803
C      4.036892142583     3.280306973944    -0.373694855900
C      3.434766686441     4.380451776602    -1.014923577667
C      2.032778664950     4.444869376645    -1.126874880455
C      1.222801895203     3.413891846902    -0.602040739321
H     -0.449675627592    -1.692824060392     3.531075328095
H      3.713581757642     1.400020822423     0.658995881414
H      5.119452129233     3.219911771887    -0.288234015858
H      4.051593629736     5.177138884773    -1.423407101214
H      1.561669833191     5.290059452528    -1.623459929792
H      0.145054293684     3.442664644336    -0.715004315890
C      1.221838718820     1.534801165204     2.816427579371
H      1.866063174459     2.401024531541     2.719405697619
H      1.653767969688     0.652631969501     3.276616573942
C     -0.157667138460     1.624126431484     2.610715151857
H     -0.779228450355     0.777294415304     2.873841216614
C     -0.904732269201     2.860424584206     2.322995973013
O     -0.287301425437     3.943889135996     2.159263049608
O     -2.274537679592     2.750278487956     2.032038919700
C     -2.938684962171     3.970868271352     1.675197507401
H     -4.013066887909     3.763387053280     1.480581657631
H     -2.873516972503     4.713687522694     2.502861471812
H     -2.495262081043     4.407860940815     0.751443246158
Pd     0.774672110855     0.803547362958     0.721846937271
C      1.360551011920    -1.863704844853     2.707778008946
O      2.564499919870    -1.582740696075     2.738974668728
O      0.526338159685    -1.530177002545     3.745900212815
C      0.624961734182    -2.552604393612     1.513112946863
H      0.038810246310    -3.389000782183     1.920995265956
C      1.578488369719    -3.078032627848     0.463396191722
H      1.011022137735    -3.567761005761    -0.355053454574
H      2.181949040012    -2.245040334850     0.043437101590
H      2.266109134249    -3.822176859969     0.917243174962
N     -0.311313415095    -1.611939010680     0.858471779471
C     -1.518887807423    -1.355076279349     1.411564424728
O     -1.817877739836    -1.651852299106     2.605438676522
C     -2.497079118359    -0.644551962325     0.573744776173
H     -2.665336597201    -1.225729973496    -0.349192811134
H     -3.441508622730    -0.555954664072     1.141699660836
H     -2.115088333986     0.364594343473     0.345228662166
N     -0.947145542204     1.207627496894    -1.809416370341
C     -1.761115469322     1.653241320036    -2.816427167321
C     -1.630805841095     1.138335950741    -4.092841335887
C     -0.675147940347     0.183147568410    -4.369238645348
C      0.127864794543    -0.247492845782    -3.345699032683
C     -0.043455243091     0.312182965782    -2.057912157344
H     -2.511808594111     2.406249126642    -2.607089292068
H     -2.275541332782     1.497816553816    -4.877940350170
H     -0.561391288078    -0.217167314117    -5.373196005081
H      0.899905966614    -0.975818686448    -3.489811136062
O      0.779402453432    -0.172965295381    -1.124325371481
H     -0.091255568625    -1.285470229366    -0.104829017749

