# STO-3G

title

0 1
C     -0.801111343975     1.928458995005    -2.181284370785
C     -0.547779128448     1.657844879760    -3.540630995310
C     -0.489329735866     2.708361958400    -4.477719823381
C     -0.688723432997     4.038194346499    -4.056959419979
C     -0.947329440681     4.312601230952    -2.699030072716
C     -1.003786056803     3.260642490253    -1.763666632915
H     -0.854310032007     1.114271600708    -1.460899088638
H     -0.401149324901     0.631814373375    -3.868139452536
H     -0.290017583412     2.490877060622    -5.524640843642
H     -0.642673130522     4.851109613718    -4.778126705072
H     -1.106256296290     5.337059801792    -2.369723963442
H     -1.197989747712     3.471195899165    -0.714861704712
C     -4.051088407080     0.133359225043     1.062004631030
H     -4.721131341845     0.889441101195     1.465918376836
H     -3.989074038858    -0.795018769717     1.621742482065
C     -3.608217840194     0.160323961193    -0.271121439101
H     -3.132738153181    -0.705730979107    -0.715280875763
C     -3.982894492875     1.219510125678    -1.224732962498
O     -4.255914370855     2.364523596829    -0.776894166011
O     -3.888922739450     0.966634876641    -2.601888242065
C     -4.184572505806     2.072456487699    -3.466455449328
H     -4.055112467854     1.756849989653    -4.523833349195
H     -5.234000230377     2.416477541674    -3.327118815857
H     -3.489094156518     2.921161366904    -3.279111128696
Pd    -2.060737614062     1.029498837688     1.189230434740
C     -1.558232283462    -0.658175991525     2.292932581744
O     -1.296816916917    -1.626217718228     1.534318864934
O     -1.610762639216    -0.345240699971     3.486925447863
C      2.054113076674    -0.552744857202     1.108433430585
H      1.741057799289    -1.094113633165     0.211150741485
C      2.940749316713    -1.219526708230     2.115550659951
H      3.998577413594    -1.014717863077     1.860169511938
H      2.717312564110    -0.817804689552     3.125144575085
H      2.751090892742    -2.310813895977     2.107658351951
N      1.750085539472     0.650488389983     1.390954195477
C      1.095999640056     1.733780858623     0.966472966391
O     -0.127710890744     1.999824194904     1.143052407527
C      1.944284200277     2.780143076507     0.366239612765
H      1.838024883531     3.690648919837     0.978362143077
H      2.996872060834     2.443852342054     0.367809263911
H      1.602816356228     2.956716753161    -0.667072956027
N     -1.989596108647    -1.859585692603    -2.103506178127
C     -2.515164802543    -2.096387423776    -3.345812642805
C     -1.673509249986    -2.287044553721    -4.428084213748
C     -0.304005178053    -2.245344223937    -4.265163693549
C      0.192321920982    -1.990845957774    -3.012679691648
C     -0.715318352156    -1.805938348324    -1.946753057773
H     -3.590254085671    -2.133098474108    -3.477265399025
H     -2.096555705765    -2.477185685997    -5.400469052079
H      0.363182235674    -2.400641934698    -5.108742388685
H      1.242945250845    -1.938735924380    -2.809253445957
O     -0.121116749566    -1.562933446748    -0.764163624246
H     -0.722404577830    -1.570973436926     0.049826654713

