# STO-3G

title

0 1
C      0.752114461226     3.785826476636     0.499467389241
C      1.700214064710     4.696638722698    -0.031509094961
C      1.304412889228     5.775738774269    -0.840334687726
C     -0.058175639401     5.975116834571    -1.133440652556
C     -1.013282635230     5.083235986568    -0.604006783640
C     -0.616410200146     4.003657986278     0.200877068740
H     -2.654219597893    -2.113959973909    -0.075942051243
H      2.755963432306     4.556331058313     0.199193704991
H      2.052320496368     6.462782304834    -1.230798985258
H     -0.371558607749     6.810616274181    -1.755236444995
H     -2.069247455139     5.230132400886    -0.821787470678
H     -1.374886519320     3.326681395520     0.583529395480
C      1.244462475605     2.658994216170     1.331609818439
H     -0.489169821777     0.940868953975    -0.010591160292
H      2.311167811269     2.724214533291     1.558662574254
C      0.443089627838     1.810262634562     2.172493473090
H     -0.631479019866     1.939244835570     2.184504559631
C      0.971505307004     1.068591170851     3.327545962275
O      2.197502895542     0.786173136782     3.337406200348
O      0.052984545878     0.327873615097     4.088861439269
C      0.613478478435    -0.656236812769     4.970972837261
H     -0.204229947919    -1.164622363924     5.526564425117
H      1.169297402435    -1.433875151942     4.396810717748
H      1.296921112585    -0.184215208148     5.712962369903
Pd     1.089462386388     0.726854356988     0.425575498313
C     -0.232610480948    -2.043106981445     1.430647488717
O      0.531118508525    -1.481664693349     0.504720942579
O      0.021812945313    -3.052354085891     2.122407493472
C     -1.602324593422    -1.261419295594     1.551811443180
H     -1.371584132631    -0.232773355707     1.839644197349
C     -2.570421416145    -1.861864957960     2.545775933620
H     -3.509360506869    -1.270984535469     2.556254343482
H     -2.802259483714    -2.906564362835     2.252926052345
H     -2.122838843539    -1.856757328038     3.560775643917
N     -2.260457769863    -1.231664467223     0.234049473184
C     -2.226598894598    -0.226010077832    -0.633634463314
O     -1.638350608077     0.905585468194    -0.457651131971
C     -2.947004412189    -0.422884558526    -1.902761053774
H     -2.492064616849    -1.284019284939    -2.421828380078
H     -4.004033129003    -0.626873704309    -1.662451265110
H     -2.859731778017     0.489230504989    -2.520636198110
N      1.868029157643     0.432872839661    -1.581483240762
C      2.085509829995     1.559999471056    -2.328462989446
C      2.685893107775     1.462468324006    -3.567115543697
C      3.064696202860     0.235689952012    -4.067466258620
C      2.821784760608    -0.878302095968    -3.307954397565
C      2.201170892494    -0.737775876177    -2.047957869018
H      1.789572562088     2.528584049978    -1.944730715582
H      2.855125358208     2.356405239461    -4.145141489639
H      3.537569671953     0.153183381555    -5.042533038358
H      3.080073231359    -1.864006660362    -3.640928324655
O      1.992449624496    -1.877880096122    -1.419454664052
H      1.435929476330    -1.824073422352    -0.530281583838

