# STO-3G

title

0 1
C      1.418155708481     2.420872825569    -2.266815220099
C      1.132856672097     3.817101624924    -2.258592339979
C      0.401593455468     4.398451888774    -3.308822849310
C     -0.027871049371     3.600174925370    -4.386632505263
C      0.276217055622     2.222743909622    -4.427014125965
C      0.996441793912     1.636115079609    -3.379127984751
H      2.127919095356     1.964746444482    -1.580546197583
H      1.506658280011     4.446885510355    -1.454645968734
H      0.165116684999     5.458892151464    -3.288096934921
H     -0.606945063855     4.047469649930    -5.190916429791
H     -0.069060427414     1.614934403663    -5.258438706556
H      1.229596717005     0.576718525400    -3.378924280451
C      0.759140318526     2.661848588302     1.017255194073
H     -0.010863225923     2.963098847376     1.720583068444
H      1.233568309445     3.454708126657     0.452617360644
C      1.296067667434     1.385702346645     1.035878343640
H      2.135614890100     1.124937279062     0.407610612818
C      0.929866998322     0.354926899839     2.025801875705
O      0.042536246931     0.596411637391     2.890447356747
O      1.669637762370    -0.839471327517     2.054054759407
C      1.216057342558    -1.836600759943     2.978442095120
H      1.868347616100    -2.732490287883     2.899187534943
H      1.266111035532    -1.459266382329     4.024837890320
H      0.172287384558    -2.144993546729     2.742351934143
Pd    -0.351042461094     1.763039527320    -0.781756490978
C     -3.049538450415     2.236119435221    -1.592379249368
O     -1.818696087936     2.097352473882    -2.144346215870
O     -4.050667339556     2.614144539419    -2.227638303288
C     -3.095717379181     1.879505538827    -0.065323575455
H     -4.067632239572     1.409977413460     0.131756768683
C     -2.973335652569     3.111185985354     0.802115963568
H     -2.919416361806     2.810543267573     1.869262884212
H     -2.055956302838     3.671127145926     0.535471695261
H     -3.854621534415     3.769389356974     0.651743379069
N     -1.936274915634     1.011019038911     0.208222749431
C     -1.957862049912    -0.275375346191     0.553447451747
O     -0.982888568532    -1.095851914216     0.391370179728
C     -3.157236662004    -0.808061275520     1.236269002128
H     -2.935813863121    -1.828446277766     1.597678045441
H     -3.377407129458    -0.152574657604     2.096630192576
H     -3.994163048438    -0.849083777866     0.519085117688
N      3.160920205995    -0.290493447458    -1.157914035060
C      4.428227012185    -0.806654604693    -1.122575338021
C      4.621754650307    -2.162604013723    -0.924610953735
C      3.543464871575    -3.008518191647    -0.768790972383
C      2.282861848896    -2.473733018185    -0.825639061204
C      2.145819448383    -1.078424204475    -1.030527292124
H      5.279979695367    -0.146837018677    -1.238331242680
H      5.624470881968    -2.554670378485    -0.891617194159
H      3.690010207456    -4.073929705046    -0.613818954618
H      1.403382805659    -3.075996586775    -0.727686861223
O      0.898438447604    -0.598081559772    -1.114777517121
H      0.124008145780    -0.946818563584    -0.495033960591

