# STO-3G

title

0 1
C      1.402704832024     2.266834753790    -2.381148941928
C      0.182828452484     2.296219199890    -3.116726400078
C     -0.599511504191     3.473415184340    -3.134798565904
C     -0.165257556321     4.611528729460    -2.444100761660
C      1.055135890085     4.594002778782    -1.725242129236
C      1.833811220458     3.434770000812    -1.692050056164
H      2.090827003235     1.432015315970    -2.464860929625
H     -0.127552131778     1.448774441039    -3.722164420714
H     -1.538830808263     3.486998898623    -3.680446766123
H     -0.773517207609     5.512249102111    -2.448810914477
H      1.372924035595     5.480622178901    -1.183364320178
H      2.757212276119     3.403181816262    -1.124587044784
C      1.542262666240    -0.886696922166    -1.118521052272
H      1.384900100118    -1.615255127102    -0.331961157852
H      2.436345439935    -0.275004841632    -1.038275436518
C      0.724429427677    -0.880087127480    -2.230039612760
H      0.953636351800    -0.228209972043    -3.058392289251
C     -0.302973611829    -1.892637281722    -2.527514660219
O     -0.067962466900    -3.100216345002    -2.253370853717
O     -1.281897076214    -1.549208998354    -3.476777171916
C     -2.227311619562    -2.581250691923    -3.791213914189
H     -2.966737149027    -2.194427107957    -4.524677032889
H     -1.716755231614    -3.461841745722    -4.243624639555
H     -2.776829658238    -2.903671175205    -2.877186335301
Pd     0.130060045469     0.982756464339    -0.760674298607
C     -1.141036388674     2.680254496676     1.194932683449
O     -0.732726843512     2.642416522849    -0.094306469499
O     -1.746713726632     3.655140815422     1.675710270012
C     -0.761593256264     1.421866470115     2.020765254721
H     -1.638239663770     1.199419056905     2.640493464480
C      0.406644657602     1.715491917953     2.939179013764
H      0.128555925000     2.509865616299     3.663688524166
H      0.684452364001     0.802457559348     3.502271846331
H      1.279953583786     2.064871244667     2.349020357536
N     -0.405399952931     0.302071364674     1.100705705502
C     -0.985698495798    -0.937800616078     1.149716163241
O     -1.080123208384    -1.700711587028     0.156900228099
C     -1.402651661154    -1.463900125478     2.472823884646
H     -1.632506535442    -2.539610402410     2.357914994626
H     -0.560934654811    -1.345952880617     3.175495532759
H     -2.310684057937    -0.939844329176     2.812101874714
N      3.604942757383     0.952194158351     0.569128270125
C      4.846371504645     1.495650088606     0.367656921175
C      5.915667244078     1.090993339949     1.145335440508
C      5.744823610749     0.140354180340     2.129878405189
C      4.491218589089    -0.381494126655     2.315692106052
C      3.435769617928     0.072762026137     1.496239175289
H      4.989507568436     2.238218323787    -0.408490881238
H      6.888751299492     1.522193779246     0.975557505167
H      6.581448054087    -0.185018549753     2.742620695149
H      4.284509349205    -1.123256386999     3.060885701664
O      2.257831503497    -0.509682759999     1.782614513373
H      1.453857443075    -0.144791620582     1.314261317852

