# STO-3G

title

0 1
C     -1.469830996776    -1.889008563315    -1.778067268702
C     -0.760699798632    -2.627689885395    -0.787147906560
C     -1.371474682278    -2.931233720605     0.454203100349
C     -2.693856449901    -2.534690426215     0.692192049327
C     -3.425576478366    -1.845879456545    -0.307858712765
C     -2.826796257190    -1.529181990537    -1.530450755470
H     -1.064200926971    -1.747055901471    -2.775937048567
H      0.204619976814    -3.063477348839    -1.016169392447
H     -0.818225864571    -3.494381727344     1.200852263031
H     -3.169550562424    -2.774582447366     1.640329347793
H     -4.459337373471    -1.566125175211    -0.123696241096
H     -3.373558949277    -0.993039632375    -2.295378030043
C      1.518114869154    -1.168662372984    -2.788310869342
H      1.141776319931    -2.164652764448    -3.012349719938
H      1.252416180349    -0.362506376601    -3.476429032569
C      2.442957922875    -0.947529221897    -1.788230316879
H      2.854379653144     0.041969124527    -1.686276951648
C      3.056815313699    -1.976081962525    -0.930650448905
O      2.653288305473    -3.167825486343    -0.994399672143
O      3.996210124996    -1.576567208505     0.033958315168
C      4.550587241412    -2.622634455131     0.844169544849
H      5.282549234673    -2.185814796030     1.557623900450
H      3.754839054803    -3.133487782801     1.432158827065
H      5.084232009971    -3.370330729684     0.214321700134
Pd     0.161851850093    -0.231073252454    -1.078137637443
C      0.763601315897     2.009855614070     0.681604272026
O      1.323554631011     1.323799820290    -0.362775219672
O      1.349204238011     2.926953087187     1.276862782925
C     -0.681966459438     1.520146493096     1.005262760267
H     -1.243564672200     2.382941884755     1.387282242924
C     -0.692269867780     0.444587652722     2.066533346768
H     -1.739543951856     0.135985307922     2.267018431068
H     -0.129087967021    -0.442402476323     1.712496957261
H     -0.236322058547     0.824141747138     3.004695218343
N     -1.242065180133     0.928395401275    -0.216781703648
C     -2.059622797648     1.521981423845    -1.119112512209
O     -2.248109738215     1.084954909714    -2.294279583892
C     -2.847960973420     2.697725875947    -0.678172062507
H     -3.429234934264     2.407956584612     0.213484166836
H     -2.153789792612     3.528854806252    -0.474776200332
H     -3.535297526523     2.985020360652    -1.495315499402
N      0.298512045192     1.543081865597    -4.249787961249
C     -0.847230300819     1.963122199467    -4.871752981771
C     -1.371430473886     3.214676610471    -4.591682009023
C     -0.766908302665     4.032911185579    -3.662426960213
C      0.365274468738     3.578997215042    -3.035725547265
C      0.869413051539     2.301292558985    -3.390907768892
H     -1.335550580443     1.317245041174    -5.591738707057
H     -2.270587212039     3.532305945006    -5.091498220980
H     -1.175859908136     5.013514626389    -3.435430973852
H      0.902298288232     4.177910729775    -2.328305711261
O      2.019969665168     1.913282795008    -2.767000824838
H      1.938810594144     1.976741043343    -1.770009891596

