# STO-3G

title

0 1
C      0.568456974820     2.336844532049    -2.586422126138
C      1.691901263874     3.192304776340    -2.484012221897
C      1.477300308586     4.534527723182    -2.098096320464
C      0.175193859072     5.011125501954    -1.863537404096
C     -0.931254810773     4.147131227023    -2.007791797078
C     -0.741825217980     2.803152144912    -2.368332405283
H     -1.772289089292    -0.203444544088     2.230088701428
H      2.677287780747     2.846317798488    -2.779614000257
H      2.329499306546     5.202712028437    -2.008447179585
H      0.019272803039     6.046698409053    -1.572697158317
H     -1.936843405025     4.524107636289    -1.844213193328
H     -1.574979432503     2.121168044595    -2.505928582428
C      1.481125104242     1.600652710854     1.803121920092
H      0.754208541830     0.840355191408     2.072674127769
H      2.482077559886     1.420407021473     2.183741323161
C      1.076786042637     2.911399625546     1.420967800740
H      1.796172604265     3.717106083012     1.487697623403
C     -0.328575697202     3.354247595428     1.370719099862
O     -0.588478837627     4.582977707771     1.414435151934
O     -1.334548630949     2.386914577272     1.240074425516
C     -2.682150483918     2.874715792182     1.200453552825
H     -3.379394555120     2.014343410162     1.097698255744
H     -2.936531871829     3.418071598208     2.138462387640
H     -2.835452013454     3.548962756231     0.328360100987
Pd     1.587655614016     1.750191360562    -0.348359349719
C      0.170277546055    -1.576480193464     0.942301385156
O     -0.445357672243    -0.540743877149     0.276047682484
O      1.270187911982    -2.057195072919     0.632848136231
C     -0.672632251845    -2.004163950426     2.160446220804
H     -0.009458383173    -2.518586760277     2.860898682793
C     -1.819064843988    -2.916325946166     1.784122170564
H     -2.365438453104    -3.217353660746     2.701889582086
H     -2.519240306597    -2.374184369921     1.115424392742
H     -1.437515222527    -3.823668053876     1.272083321981
N     -1.221881800876    -0.821361951073     2.818361778616
C     -0.715693617059    -0.374161140825     4.004488062052
O      0.205206002996    -0.927269292196     4.645165388796
C     -1.350586385593     0.848878731469     4.537618171047
H     -0.876234094985     1.102765515298     5.501937577650
H     -1.208249570477     1.658555254664     3.806403710006
H     -2.424785895797     0.638243548996     4.679739871153
N      2.159809713845     0.137237146987    -1.703583096788
C      3.008125675245    -0.884463392967    -1.359891828096
C      3.201929742924    -1.943991118342    -2.224771795869
C      2.530474395949    -1.995247636693    -3.428419975971
C      1.688044171435    -0.962452417820    -3.741970456840
C      1.542981665955     0.105075639057    -2.832528069936
H      3.529952913085    -0.857325696958    -0.410377267023
H      3.861791244582    -2.747150576676    -1.941071052117
H      2.664939922363    -2.831793523326    -4.108693566670
H      1.131553491842    -0.922782878241    -4.656703531630
O      0.681209421308     1.061712624660    -3.244945604688
H      0.182767461698     0.085847969052    -0.205193682945

