# STO-3G

title

0 1
C     -0.391961099600     0.970034720938    -2.758019433448
C      0.077964416417     2.012269861185    -3.570095057953
C     -0.860723267506     2.900060046209    -4.126994380682
C     -2.237745849587     2.737895716987    -3.879256290222
C     -2.680783634041     1.672086139503    -3.072008776989
C     -1.756306142808     0.774896125575    -2.507154338694
H     -2.266075195789    -0.325963773060     1.616464237852
H      1.138238631496     2.136812044984    -3.756065420882
H     -0.510616312781     3.717403961299    -4.751664160840
H     -2.954982530661     3.428656765211    -4.313918601201
H     -3.742269880752     1.531892351068    -2.885762236743
H     -2.080491929740    -0.055181141117    -1.887934688212
C     -0.714782862323     2.565875650172     0.454432696640
H     -0.867929355983     1.547021681533     0.792757411259
H     -1.403274749221     2.904108782684    -0.315873840432
C      0.074859817529     3.490051105048     1.162606887945
H     -0.009562850372     4.544302266975     0.941289955678
C      0.849551097911     3.152525473020     2.366224898514
O      1.363395569032     4.104703918068     3.006082991645
O      1.471744739550     1.893839433316     2.352219806301
C      2.250076845146     1.577787699405     3.515326294623
H      2.674662150654     0.555469546446     3.408696161519
H      3.095140053574     2.292298447829     3.640286200289
H      1.613264235888     1.593189298965     4.430614644180
Pd     1.268345528183     2.424433787665    -0.399309975273
C      0.267623285305    -1.074724721165     1.241259079055
O     -0.536381071905    -0.734450489638     0.177888040221
O      1.436437256866    -1.472074602080     1.129063748300
C     -0.486679155401    -0.935058069400     2.574900700968
H      0.175228757207    -0.428357951814     3.284007069595
C     -0.858212807664    -2.285389249099     3.149704339695
H     -1.337305597558    -2.145283520697     4.140899554579
H     -1.581800670704    -2.784966497018     2.473062548232
H      0.045392504640    -2.918841262653     3.268306479969
N     -1.707368656549    -0.146126481160     2.442667597532
C     -1.930740373969     0.956984928309     3.210666365366
O     -1.144953736987     1.401673554503     4.077081387145
C     -3.213712364687     1.645933171573     2.960735480368
H     -3.284818789608     2.518596731965     3.633463649007
H     -3.237388573795     1.961829833715     1.905705470264
H     -4.028148377275     0.930355078266     3.168859677258
N      2.411458177438     1.100757974966    -1.568311925841
C      3.775584404570     1.117475871330    -1.418823497095
C      4.533481779105     0.032599605116    -1.812674654072
C      3.926868966692    -1.082214490297    -2.352493482061
C      2.566201088429    -1.067925642469    -2.499102133173
C      1.844507373080     0.075653925589    -2.101601242597
H      4.258509856849     1.982990611438    -0.980514824464
H      5.603139175795     0.052154075185    -1.683428664774
H      4.511331481994    -1.947735514404    -2.652774563731
H      2.019215083762    -1.893944482884    -2.907395922715
O      0.481319119585    -0.052357995137    -2.242298574222
H     -0.055748966764    -0.625692950542    -0.690821173023

