# STO-3G

title

0 1
C      0.790788215556     2.776521514838    -1.477172118062
C      1.753431620109     3.805141940711    -1.557298613307
C      1.677022685819     4.757676645071    -2.596916458470
C      0.645607568600     4.687243728419    -3.552084055574
C     -0.311936181972     3.657062544342    -3.467937824582
C     -0.240840566511     2.698541682577    -2.436327465191
H     -1.159976602144    -0.566531623667    -0.441545184147
H      2.561238688640     3.875836764999    -0.830710732266
H      2.420951430183     5.550127742154    -2.653667364881
H      0.588014457734     5.423287766764    -4.350639490951
H     -1.111473610288     3.592701175027    -4.203264371785
H     -0.979779559359     1.901750260086    -2.384810654689
C     -0.683997772587     2.525334915490     1.153104447806
H     -1.211958271989     1.772883413434     1.726345611986
H     -1.249898885876     2.999781495494     0.359081267484
C      0.566092569740     3.002542025782     1.536012814302
H      0.992949363895     3.843533224419     1.012526277450
C      1.271803094438     2.616292208374     2.770826981605
O      2.446631413637     3.035362850088     2.941294323613
O      0.609992805081     1.866202658015     3.759399741016
C      1.393813151119     1.511168399356     4.906698308422
H      0.768144485836     0.923859176913     5.612689380488
H      2.265533513757     0.884682954932     4.609882725123
H      1.754201934000     2.421409164108     5.437742426305
Pd     0.843819509036     1.381719195258    -0.055180447637
C     -0.182935411661    -1.092836171369     1.861737860151
O      0.611656606528    -0.141918867919     1.595289035797
O     -0.166082616797    -2.266563018657     1.213242437218
C     -1.383806394629    -0.877463784265     2.799667642630
H     -1.111856454517    -0.090757768082     3.514347254639
C     -1.780287725490    -2.112551866744     3.576224553473
H     -2.589490164525    -1.855796938171     4.291090351366
H     -2.163391299777    -2.880525999710     2.872670579349
H     -0.910861844563    -2.515257776407     4.134666438655
N     -2.584091876602    -0.428114847355     2.087555446221
C     -2.790903026469    -0.101656052538     0.863213050601
O     -1.987553624509    -0.016242201437    -0.239997725811
C     -4.161610618344     0.351990757775     0.591778188071
H     -4.840675072423    -0.483179052900     0.832988010943
H     -4.367419368008     1.212085766291     1.250071854753
H     -4.264872583072     0.637457153866    -0.470623627577
N      1.736581552345     0.125594340833    -1.454751864504
C      2.864137587168     0.470668653900    -2.150203818830
C      3.420500516223    -0.414573258245    -3.050356446346
C      2.845781263539    -1.647072235800    -3.266655406572
C      1.714537554032    -1.970437900060    -2.566199343535
C      1.162837850162    -1.038172004032    -1.655625226406
H      3.332942349544     1.432176784922    -1.980663857479
H      4.309507856874    -0.133047714140    -3.589894060005
H      3.277557530734    -2.345049931428    -3.978861362852
H      1.208060082094    -2.904416951196    -2.700618572740
O      0.079580325272    -1.412123637833    -1.040494845711
H      0.144967843936    -2.128114374674     0.222279378017

