# STO-3G

title

0 1
C     -0.353123101453     1.251312229929    -2.684339887760
C      0.972724083975     1.042139665985    -3.120688437968
C      1.768571384175     2.131633884953    -3.528964704264
C      1.238792814575     3.438471770461    -3.507888524742
C     -0.088128447892     3.650381126980    -3.081635780552
C     -0.880693185443     2.559106355979    -2.671688716421
H     -0.951781230608     0.393346629189    -2.388668517539
H      1.377721051679     0.032705551912    -3.146031671007
H      2.788677269937     1.962135823895    -3.867174281759
H      1.850075868669     4.279706881797    -3.827817151111
H     -0.502294570363     4.656201205104    -3.071258244828
H     -1.901984320563     2.733889748616    -2.341124830144
C     -2.932927269235    -0.956476910013     0.724275443570
H     -3.320756973497    -0.817193322249     1.729813957310
H     -2.449356068664    -1.904796985220     0.507397002322
C     -3.206625498464    -0.071308280910    -0.312235994682
H     -2.887298222376    -0.343088081662    -1.310585845562
C     -4.045304096891     1.134206671813    -0.180723576493
O     -4.564882986719     1.417029419786     0.931585437224
O     -4.242957520109     1.944085569961    -1.311907017871
C     -4.964955399538     3.162704428849    -1.086585189171
H     -5.053445853147     3.721533141216    -2.042828605347
H     -5.991686995059     2.951541727317    -0.710085367983
H     -4.427840611260     3.808128785212    -0.353846493539
Pd    -1.143047271985     0.475871396036     0.562013978117
C      1.442319912060    -0.644862823517    -0.078062729020
O      0.118422868053    -1.009061320997    -0.001574773863
O      2.305915300948    -1.400659245664    -0.537713172115
C      1.779034114011     0.801696303951     0.446724284449
H      2.338860689654     1.301714053252    -0.355890467120
C      2.625671377554     0.749187164548     1.699603182029
H      2.878287076145     1.777563499124     2.027890297833
H      2.058442621886     0.244250653236     2.508771516447
H      3.564910760961     0.190551631926     1.503634337244
N      0.539178301146     1.472726502858     0.764366746562
C      0.008740148361     2.671296043725     0.837720064511
O     -1.302096766756     2.700665239556     0.938437940601
C      0.791502404540     3.911028073817     0.766062581165
H      0.599740893253     4.481727843980     1.690106382535
H      1.860995124386     3.665120690918     0.669614778763
H      0.445030364004     4.474926726160    -0.117480353303
N     -1.943389542692    -1.700793529915    -2.761976882005
C     -2.580773910023    -1.623065836890    -3.971932412525
C     -2.986792056927    -2.776902675879    -4.617089013651
C     -2.748967560680    -4.013477240829    -4.054154114468
C     -2.097194991969    -4.064008622900    -2.849719928414
C     -1.693714720833    -2.855979649803    -2.239618331354
H     -2.777342414647    -0.653228729991    -4.414186265795
H     -3.492620743086    -2.703838650986    -5.565467326244
H     -3.065767870482    -4.924288213528    -4.555007273265
H     -1.867131087250    -4.988012740007    -2.358781962590
O     -1.054851384573    -3.027723018916    -1.076301733721
H     -0.545221751544    -2.226917188244    -0.712206203341

