# STO-3G

title

0 1
C      0.122905564726    -1.877110539229     1.176627712734
C      1.396996019821    -2.424647008480     1.438670885777
C      1.548872199049    -3.820944739933     1.562358786949
C      0.430507590794    -4.665801532966     1.419511030908
C     -0.841696740487    -4.117214078966     1.155546935053
C     -0.999069304395    -2.722767779025     1.037764742343
H      0.008156375192    -0.797768283827     1.104224749482
H      2.252008408946    -1.760474733761     1.534739792481
H      2.530037375005    -4.245095251216     1.762703449981
H      0.548895032724    -5.743417300180     1.509549925637
H     -1.702987433295    -4.771632415750     1.042997252138
H     -1.976858150268    -2.286764100281     0.849911956876
C     -0.959665566671     2.158460050950    -1.391821422737
H     -1.623555836755     3.017195547733    -1.411588302540
H      0.104967850873     2.367539324507    -1.403406497004
C     -1.412244026955     0.851724945852    -1.498877223156
H     -0.692371931577     0.053832463455    -1.614104575590
C     -2.828195974388     0.461982653772    -1.622091198362
O     -3.727422485535     1.336320775446    -1.499961895564
O     -3.140238843343    -0.896772417364    -1.793924207691
C     -4.532013004698    -1.232062911470    -1.711449815243
H     -4.656109226606    -2.326600013245    -1.856408452852
H     -4.940429410284    -0.965792141679    -0.709394207830
H     -5.114755627201    -0.706763386370    -2.501814543149
Pd    -1.204036627476     1.402580680425     0.755077070444
C      0.482753230920     2.843927809558     2.582076400112
O      0.227561942602     2.748423109152     1.246044997876
O      1.341103951866     3.622720125110     3.028473672405
C     -0.333819801501     1.876223701910     3.526959790880
H     -0.807553188289     2.491571790685     4.304935453547
C      0.583647147505     0.857992124719     4.172293563087
H      0.006888309480     0.191751166154     4.843874927095
H      1.066547880016     0.242210114138     3.384394051529
H      1.368763331822     1.373424020097     4.764199372639
N     -1.290814902915     1.172870086520     2.705540680883
C     -2.315205274986     0.358255785226     2.744578218503
O     -2.779665237007    -0.018996656347     1.571055372604
C     -2.923121683295    -0.127189384164     3.989379171542
H     -2.793874156492    -1.222681422751     4.016827104993
H     -2.428261565312     0.349314707832     4.850663006046
H     -3.995258482709     0.134750315637     3.966981238525
N      2.267869941476     0.688403016402     0.070821673711
C      2.949129016915     1.842270128836     0.358614626224
C      3.446609010691     2.623819072939    -0.670763706053
C      3.254148541382     2.256677884787    -1.986609411306
C      2.559191342183     1.101913687004    -2.242016121209
C      2.084772617188     0.346011484349    -1.150137402762
H      3.106599587122     2.134179271330     1.390133402391
H      3.975168892229     3.532105219601    -0.431821402629
H      3.637472242423     2.869494031327    -2.798008726632
H      2.365150878234     0.754066336899    -3.236699690841
O      1.386142459042    -0.761795748818    -1.513498878932
H      1.124609066316    -1.292268221058    -0.725223391136

