# STO-3G

title

0 1
C      1.150966918352     1.693521142092    -2.807645474403
C      1.257820738673     0.987513201688    -4.023717749026
C      1.817016522692     1.617801310580    -5.153227978675
C      2.265873784305     2.951762961032    -5.071254508422
C      2.151786480092     3.659434551875    -3.858124391971
C      1.595210554998     3.028827587207    -2.727544662096
H      0.736208188376     1.207828283270    -1.927418531339
H      0.892920421140    -0.034471665123    -4.078616254586
H      1.898483713386     1.074681839478    -6.092315728229
H      2.695798944332     3.436605762116    -5.945104621222
H      2.491079047484     4.690971114467    -3.793641593654
H      1.502887226616     3.576854893059    -1.791016888437
C     -2.264374641155     1.535505701601    -2.181770256338
H     -2.907554318655     0.946045126713    -2.830919933839
H     -1.388356856073     1.980770698749    -2.640689459264
C     -2.608891281938     1.848401833372    -0.878554639900
H     -1.986974711486     2.517133730716    -0.299696184034
C     -3.848044470665     1.409670140062    -0.212938489671
O     -4.524546424585     0.476158171398    -0.723218717584
O     -4.191465065974     1.974615964414     1.025638027497
C     -5.278945047349     1.349312208607     1.720293627144
H     -5.450239091320     1.876592402092     2.683368184410
H     -6.216066453324     1.400746965409     1.121239277790
H     -5.038850105521     0.285641178895     1.948777080469
Pd    -1.323758019696    -0.158009575434    -0.937672899414
C     -1.173757021990    -1.200797126598     1.751607041173
O     -1.579299347839    -0.070194982677     1.079368023329
O     -1.411986924515    -1.370326118347     2.952451270503
C     -0.364158913286    -2.247784357702     0.898262991010
H     -0.823226337136    -3.232587100459     1.067394629731
C      1.085685513496    -2.284095720514     1.332299000157
H      1.643335660838    -3.041982632835     0.747766365166
H      1.546108324048    -1.289257317534     1.160933672528
H      1.155579796031    -2.537168896759     2.410986711048
N     -0.417895168351    -1.841710534406    -0.486994023683
C     -0.200756711029    -2.265469515147    -1.705837394225
O     -0.522220907626    -1.419057071852    -2.660714138746
C      0.360048017200    -3.585323873712    -2.022613062929
H      1.316606285865    -3.423809828506    -2.547667573710
H      0.513367607122    -4.154591821027    -1.092125244637
H     -0.356234271549    -4.107813592419    -2.680441278109
N      1.409759213615     1.311962293667     0.561224305353
C      2.731601967358     1.422386068728     0.219251378902
C      3.396659760704     2.621755098162     0.402272075103
C      2.738593983837     3.714120155630     0.928512932110
C      1.414630232579     3.577193806115     1.256260879553
C      0.790775209467     2.325906544355     1.060236230213
H      3.250988957406     0.569980400231    -0.202658555608
H      4.434928854760     2.698863686411     0.124674341941
H      3.254931337050     4.659007989054     1.075076152353
H      0.839232371220     4.377786383022     1.676366214650
O     -0.502980551755     2.301654631266     1.426955043410
H     -0.913435306100     1.382622672713     1.411525606583

