# STO-3G

title

0 1
C      1.496250572084    -0.139338272768     2.618855421135
C      2.265294567209     1.037476562897     2.522136702970
C      3.672144467854     0.966159247404     2.548816442637
C      4.313100309765    -0.282401337029     2.675788148671
C      3.545417576560    -1.460250257779     2.775831318531
C      2.138704739942    -1.387976805122     2.746279634946
H      0.411256889285    -0.099624135640     2.595892551590
H      1.778988086775     2.006412375372     2.427345110919
H      4.261912296681     1.876881842895     2.474143438211
H      5.399220813251    -0.335973454284     2.700446548251
H      4.037407679286    -2.424884047842     2.876598404425
H      1.545349345379    -2.296602300627     2.810070370553
C     -2.497037240589     1.378848266322     1.328161227762
H     -3.204185710528     1.765984706969     0.598864567710
H     -2.723514608338     0.431700427346     1.817123421966
C     -1.407199113749     2.131642290026     1.755433976098
H     -0.805585026633     1.780520903556     2.582921316504
C     -1.097303425193     3.496748789265     1.290591270746
O     -1.865735965051     4.069185898463     0.473289991941
O      0.045278952511     4.135580937289     1.799740134817
C      0.355472058228     5.410299566055     1.219992225425
H      1.277940185250     5.814630860357     1.689254914456
H      0.537173511805     5.310423780417     0.124939364344
H     -0.470654958353     6.136963018334     1.393181008849
Pd    -0.689539867824     0.725814709081     0.080746654333
C     -0.328981828033    -2.109517890099    -0.141228083104
O     -1.039558511101    -1.197126314658     0.584686871943
O     -0.444379009088    -3.329242791692     0.067976172744
C      0.633924648554    -1.534755437510    -1.256644506521
H      0.342889861773    -2.005654420077    -2.207026415159
C      2.082079220431    -1.860643754728    -0.954463398455
H      2.729953407726    -1.548089998906    -1.796382259594
H      2.401496279898    -1.318460544423    -0.040679551017
H      2.204828684396    -2.952236929285    -0.794497216273
N      0.473953628727    -0.097594783983    -1.270178829013
C      0.849714297696     1.005457500595    -1.873615212110
O      0.406679267664     2.121894510510    -1.337960303204
C      1.686819436305     1.028446483948    -3.080196178054
H      2.629073753258     1.540868794703    -2.823088983148
H      1.875399284129    -0.003133467657    -3.416863481959
H      1.142065632430     1.591913718233    -3.857758535022
N     -2.274345009810    -1.023515557747     3.421257927184
C     -1.962304668937    -2.328036391977     3.142126640220
C     -1.062618636007    -3.004952768908     3.950026230327
C     -0.470192834531    -2.371435758537     5.025077515421
C     -0.797206761062    -1.060990746367     5.268194151803
C     -1.724444589726    -0.433079067988     4.414316761385
H     -2.423895289088    -2.827296967426     2.297972826741
H     -0.817958830805    -4.028365603052     3.717837320092
H      0.245770636870    -2.893477805818     5.653842663671
H     -0.365985345064    -0.497826203237     6.070708631513
O     -1.963608140184     0.875053674224     4.707260480740
H     -2.631482419259     1.232498944244     4.085439620802

