# STO-3G

title

0 1
C     -0.319538609992     1.736284744530    -2.891844761513
C      1.037358246894     1.436534394608    -3.139285730532
C      2.001912931955     2.464141843787    -3.149050491309
C      1.610240754293     3.799654894434    -2.918327023304
C      0.253587155422     4.103376399845    -2.684458217374
C     -0.708286243569     3.073283007430    -2.671748554778
H     -1.044513706796     0.928077869885    -2.896393211978
H      1.332276773247     0.407896442611    -3.335134494984
H      3.044934501108     2.228175709176    -3.349319040003
H      2.352046945941     4.595236456699    -2.935109521175
H     -0.053144909643     5.133345648990    -2.517567745786
H     -1.752893991806     3.313421914464    -2.489581898468
C     -3.052062449461    -0.790937345545    -0.010406919211
H     -3.435341713799    -0.798871623491     1.006178606965
H     -2.636178676166    -1.720936459704    -0.384284639300
C     -3.261664546638     0.266332161837    -0.884083511026
H     -2.975427980961     0.143605574360    -1.918131107735
C     -4.000297175285     1.494871001375    -0.539262353598
O     -4.490822640821     1.624987965064     0.614586965523
O     -4.121572301204     2.505970435740    -1.507298073369
C     -4.730717460108     3.725364219468    -1.061803314633
H     -4.766697634901     4.448393137775    -1.904623484257
H     -5.772834028328     3.543650473858    -0.713634908066
H     -4.137874690711     4.181305037600    -0.235678013541
Pd    -1.162464033229     0.489416872749     0.140491403824
C      1.403110129767    -0.778233786964    -0.336203942842
O      0.059000158653    -1.040157819072    -0.459733549721
O      2.262337153735    -1.547333363748    -0.786592852021
C      1.773711231644     0.563702820780     0.400188968576
H      2.464851239693     1.104196176159    -0.261628874183
C      2.448058532010     0.294782607193     1.728084865072
H      2.734615908859     1.252295711713     2.207663872598
H      1.746068589875    -0.244244456612     2.397482993574
H      3.359714489787    -0.320523291336     1.576760522352
N      0.554817845430     1.298296762094     0.648229017460
C      0.103108771844     2.511836828355     0.861882972858
O     -1.206103411561     2.637976638423     0.824914652936
C      0.970289520268     3.674335284419     1.087954251288
H      0.716956923374     4.093525933593     2.076028239437
H      2.024921591531     3.359175093382     1.050068642306
H      0.759398477115     4.407996346193     0.290648351854
N     -3.240289910292    -2.148760942259    -3.417047555423
C     -4.009724114183    -3.220573525537    -3.780187453020
C     -3.529919311531    -4.507969994896    -3.607301636219
C     -2.271985430325    -4.721829225458    -3.082532977191
C     -1.516911973996    -3.630200733929    -2.735815959243
C     -2.065550313168    -2.337536003542    -2.940489675999
H     -4.999311508255    -3.057669287904    -4.190805794250
H     -4.145720223647    -5.344503486476    -3.893158849446
H     -1.886900329942    -5.729929253685    -2.953747047853
H     -0.522280431720    -3.733307080440    -2.349228044145
O     -1.288343801117    -1.278521441557    -2.609214849867
H     -0.618367678900    -1.406011710229    -1.869446113342

