# STO-3G

title

0 1
C     -1.360446084620     0.232279169701     0.271572006581
C     -2.609791532193     0.074833513139    -0.362590695225
C     -3.636164854930    -0.654901732554     0.269998055408
C     -3.415624537158    -1.226166757719     1.540431965224
C     -2.167956138842    -1.066017019722     2.176709704177
C     -1.141455330844    -0.337412346803     1.541955212588
H     -0.589603843845     0.805691910789    -0.235036276230
H     -2.761921394919     0.516251390763    -1.343938639911
H     -4.598941587731    -0.777491301181    -0.221884586585
H     -4.209105534035    -1.785821203902     2.031415468937
H     -1.998077886205    -1.498774258561     3.160399378710
H     -0.178417906469    -0.211415007897     2.034090335056
C      2.052486639557     1.766179215040    -1.482206375319
H      1.063036833187     2.157700617000    -1.252533036723
H      2.304346394902     1.750812381921    -2.538724513529
C      2.995578526608     1.419750026477    -0.530030053571
H      3.989720523683     1.130532354848    -0.840115415960
C      2.808268363958     1.554742610358     0.925911068762
O      1.656939106812     1.775288340764     1.387305714468
O      3.917638465129     1.379891173067     1.769670330229
C      3.637904785528     1.382320814104     3.176363615664
H      4.583698329788     1.232725819753     3.740015104924
H      3.193601464476     2.353785269772     3.491312545554
H      2.942404032397     0.552711481518     3.439600015334
Pd     1.717212343842    -0.472514650040    -1.032617157211
C      0.088547281046    -1.735474453444    -3.067993788201
O      0.668914375945    -0.526411072872    -2.776378436778
O     -0.524014844594    -1.937587561299    -4.122561505560
C      0.269350681374    -2.860661820688    -1.975968100066
H      0.752144650581    -3.710170719732    -2.480996568757
C     -1.063091313386    -3.305808193319    -1.411811708768
H     -0.924774978849    -4.194636482903    -0.766188972078
H     -1.505238809896    -2.486564310004    -0.809138265262
H     -1.759973949535    -3.571152497578    -2.234191039484
N      1.084312976504    -2.327907429099    -0.910001043658
C      1.665234037401    -2.616158731247     0.225007629678
O      2.365533602417    -1.630039070464     0.757411087628
C      1.556357001562    -3.924401561645     0.879137620668
H      0.502112678264    -4.073315550543     1.164664901516
H      1.890079185001    -4.692842705771     0.162710202772
H      2.198798106861    -3.921931376569     1.778077534985
N     -0.966775743195     2.512778945850    -2.082033696394
C     -1.749152775005     3.476504594818    -1.504363955824
C     -2.178564397709     4.558278828000    -2.252147897829
C     -1.824866023971     4.675031137868    -3.580690982354
C     -1.044730348404     3.693243504715    -4.134493171293
C     -0.643006329770     2.605436723279    -3.328445922944
H     -2.024323488237     3.390634665301    -0.459410087412
H     -2.791880115730     5.312329807839    -1.787755676653
H     -2.157948032926     5.522561594112    -4.173514114791
H     -0.737156967852     3.712133887019    -5.160443888027
O      0.111940920920     1.706802133574    -3.971259609901
H      0.278407039513     0.829909093004    -3.489726227944

