# STO-3G

title

0 1
C     -0.223270637054    -1.043364994076     1.972539742605
C     -1.446979431133    -0.507283417640     2.422496257816
C     -1.897389429091    -0.792361916405     3.726751345186
C     -1.125452527205    -1.606886927574     4.579482909119
C      0.100157828265    -2.137568147164     4.128883543360
C      0.550681177104    -1.856130148261     2.823777160549
H      0.122756900026    -0.829813183378     0.963649253210
H     -2.032241573896     0.132231398635     1.766244331859
H     -2.843388575806    -0.381412513140     4.072250590636
H     -1.476636300536    -1.827324258667     5.585288500006
H      0.696459383333    -2.766233907398     4.786628067795
H      1.496523816427    -2.264378208495     2.473206962657
C      0.985430926652     2.592651629953    -0.953071701265
H      0.056643980194     3.148374096164    -0.856772804681
H      1.503353966853     2.660410733689    -1.905759755023
C      1.597915050646     1.988268231047     0.140049856222
H      2.571553297881     1.534012057494     0.015869669215
C      1.129767025173     2.100306528128     1.533436913865
O      0.082337721258     2.748494590147     1.792741641089
O      1.906493938413     1.518458419173     2.548217620023
C      1.383207616523     1.630450526120     3.879667083632
H      2.065998848837     1.115760876746     4.588898998056
H      1.298637991119     2.697824365609     4.184639695306
H      0.383796332753     1.145643220378     3.956416494357
Pd     0.378925743434     0.431960084217    -1.068096222128
C     -2.413901803855    -0.265511867011    -1.116740327835
O     -1.592660948818     0.787023104283    -0.749431232808
O     -3.633875260813    -0.222361829932    -0.915610680419
C     -1.712045593048    -1.478145864901    -1.837869576083
H     -2.092346839887    -1.484057005156    -2.868888461052
C     -2.034987208239    -2.789375278337    -1.156002306562
H     -1.562318323934    -3.627638099800    -1.705034606865
H     -1.646594787193    -2.773100918346    -0.116068229578
H     -3.133461180003    -2.947989797008    -1.133623356660
N     -0.278638555664    -1.277696331935    -1.776905563083
C      0.807980079879    -1.589963951301    -2.450311091464
O      1.887209967738    -0.911221990682    -2.135697534466
C      0.813631944438    -2.589979413014    -3.522598549111
H      0.495533121193    -3.555117198957    -3.097479028156
H      0.112938830947    -2.239975698787    -4.300657136625
H      1.836299504979    -2.658969687971    -3.933521607272
N      0.428780782572     0.745813642321    -4.668977729172
C      1.554532427765     1.172009451219    -5.320717626908
C      1.854190325446     2.523075823710    -5.369964164997
C      1.013125999499     3.448969299095    -4.789115573829
C     -0.104839851213     2.991689113547    -4.137311014349
C     -0.348517280606     1.593930428635    -4.112684118062
H      2.212121282034     0.448689985912    -5.788599868680
H      2.741662999982     2.848433901564    -5.888014436547
H      1.228921958195     4.512609419346    -4.850023886568
H     -0.820291448194     3.663037618087    -3.706097680345
O     -1.498334293696     1.187854055983    -3.496050575441
H     -1.656346911349     1.595955773419    -2.612714498636

