# STO-3G

title

0 1
C     -0.329587948081    -0.972982211250     1.921460671110
C     -1.434603792395    -0.098889736812     1.959981499216
C     -2.199663704430     0.010419129632     3.137871992261
C     -1.861560297331    -0.753785693708     4.272750335564
C     -0.756153429799    -1.627369824392     4.231653879135
C      0.010751345396    -1.736794611761     3.054596472344
H      0.264004976302    -1.052574811417     1.013237972738
H     -1.687417175801     0.497258499612     1.084803092742
H     -3.050686543465     0.687122852379     3.168468139052
H     -2.454444066948    -0.668609867665     5.180769832538
H     -0.495106570601    -2.216533561045     5.107948053562
H      0.868944823057    -2.404630982196     3.020748641376
C      1.728891387342     1.667609590883    -1.477368018536
H      0.901881734590     2.374122704645    -1.511124190092
H      2.218227066827     1.484566583507    -2.428685041726
C      2.201276411344     1.176304045813    -0.271964733984
H      3.073970943680     0.537159133165    -0.259374918624
C      1.715930086685     1.608437779824     1.051373934440
O      0.714021107262     2.367273142095     1.132002903261
O      2.342353606164     1.094903968962     2.198766645088
C      1.791844075800     1.517249997569     3.455202562501
H      2.356132361322     1.039432949724     4.284293409309
H      1.868200223241     2.622006212398     3.570001848104
H      0.724601192242     1.211528829309     3.546645812362
Pd     0.751082325773    -0.403171155146    -1.252158053012
C     -2.049735434266    -0.692100650082    -1.982263608019
O     -1.126499237777     0.292308817425    -1.703877250618
O     -3.209186594334    -0.423633476376    -2.321160682694
C     -1.527056161107    -2.176399840156    -1.883683094644
H     -1.726925648720    -2.644606180969    -2.858784149732
C     -2.254732351164    -2.945140630170    -0.801287020239
H     -1.924816795084    -4.002361868017    -0.797528475229
H     -2.038740086397    -2.495277189165     0.189662636961
H     -3.349743753257    -2.915025197836    -0.982238476869
N     -0.118314300292    -2.138184692789    -1.563725351822
C      0.962076003523    -2.878623983479    -1.519176535502
O      2.064836592030    -2.242785151362    -1.182924189302
C      0.963663753799    -4.311724152463    -1.835082337834
H      0.330071089303    -4.827671321765    -1.095899986732
H      0.567229387891    -4.434900697588    -2.856564712417
H      2.002914548179    -4.683058645376    -1.775602333247
N      1.536049706550     2.749292170195    -4.595224251732
C      1.728064098127     4.026384712110    -5.048922927468
C      0.662126307897     4.907359099611    -5.110327382233
C     -0.601121843454     4.505272308910    -4.728656316399
C     -0.769691157772     3.215299108990    -4.293781676670
C      0.362673231833     2.360486656156    -4.256879546767
H      2.719615225491     4.348889689845    -5.344241900654
H      0.825796218254     5.912752096723    -5.461210803048
H     -1.442624726082     5.191242946201    -4.779133121157
H     -1.732741832904     2.839949153960    -4.008838499465
O      0.155355669406     1.083358301769    -3.844528848824
H     -0.549717554751     0.959059356821    -3.149305953264

