# STO-3G

title

0 1
C     -0.472204102536    -1.697945002500     1.436319116006
C      0.613693231849    -2.586401057596     1.569998572797
C      1.049536541051    -2.979534149761     2.851342101062
C      0.397745752227    -2.484440031920     3.999679124065
C     -0.692607586877    -1.600739506510     3.865167006844
C     -1.129226150495    -1.208579244873     2.583505798451
H     -0.787712064760    -1.413352376483     0.438820222593
H      1.103224240269    -2.960023868400     0.674280370491
H      1.886030315665    -3.667546951986     2.954317922458
H      0.731150652003    -2.790831652773     4.989050438328
H     -1.202464738809    -1.226927610627     4.750627785923
H     -1.970929498710    -0.527094217913     2.479259812443
C     -1.528882301732     1.102634743982    -2.193238981438
H     -1.906622793018     2.104557746261    -2.377761534195
H     -0.693889785769     0.774624139112    -2.804595791769
C     -2.184189601736     0.189985409501    -1.379331548381
H     -1.829752468764    -0.830069153465    -1.355557853660
C     -3.437667673846     0.469527309768    -0.655600475465
O     -4.003094360706     1.587332947676    -0.793892215582
O     -3.935694426768    -0.501637475592     0.228424677647
C     -5.072151004589    -0.110499967998     1.010457715115
H     -5.369682877993    -0.951824026412     1.672542838193
H     -4.825171247002     0.767118980608     1.651088057775
H     -5.936709292763     0.140485155229     0.354982730436
Pd    -0.512096936395     1.309694616697    -0.156398568610
C      2.384115266878     1.246351928544    -0.114208150854
O      1.330353337717     0.863357062827    -0.911797052309
O      3.558990340050     1.140650821463    -0.485931013569
C      1.996607003660     1.806405199376     1.309084841344
H      2.521377534449     2.764577954130     1.432846317592
C      2.431053773532     0.849763683506     2.400465247072
H      2.217179963230     1.280265360122     3.398163047128
H      1.874242138009    -0.105071754260     2.301905512614
H      3.519875361680     0.647670284475     2.323720717417
N      0.559387269727     1.947043904453     1.361795909710
C     -0.435309957764     2.375479240455     2.099151953397
O     -1.635889941138     2.159146849779     1.601936375647
C     -0.263597675371     3.058166244619     3.387277071456
H     -0.718375061075     2.420644145857     4.164134185092
H      0.809363489743     3.213072165527     3.581631163168
H     -0.788274049685     4.027718110095     3.328512327207
N     -0.869042196721    -2.293320909039    -3.286382721962
C     -1.063131623060    -2.645344082015    -4.594460362620
C     -0.082105690493    -2.381550516512    -5.535335152804
C      1.100699996243    -1.776631435176    -5.163224322313
C      1.274903518386    -1.444092124962    -3.843723152807
C      0.232607825572    -1.744347703267    -2.928419430968
H     -1.991937089335    -3.117663474983    -4.892181234707
H     -0.247321057264    -2.658635688730    -6.563310286594
H      1.877163810270    -1.574808312374    -5.896453086797
H      2.182713919644    -0.994849250624    -3.491923183032
O      0.440414682675    -1.424127858778    -1.627243398126
H      1.031935279687    -0.633170424822    -1.448268217845

