# STO-3G

title

0 1
C      1.638011228069     3.494261921140    -0.969948735366
C      0.913345288562     3.968883650302    -2.083812176423
C      0.761364796419     5.354308674338    -2.282357325785
C      1.341012582473     6.267442035935    -1.376407072523
C      2.080277611046     5.793604341301    -0.275421036674
C      2.232189726696     4.405746569482    -0.070202165963
H      1.757101313009     2.422891663048    -0.827033734605
H      0.490294279761     3.253754440228    -2.783513085678
H      0.196800914693     5.719054638618    -3.137658585904
H      1.221786472836     7.337326017711    -1.532496817922
H      2.537998990932     6.496896183063     0.416555862600
H      2.816826830122     4.024281887318     0.763353251162
C     -2.185931232960     1.331314210341     0.511393089169
H     -2.963055019432     0.576651719601     0.442069159382
H     -1.682073955201     1.449238723522     1.463537002887
C     -1.882226175902     2.195644980546    -0.525897553164
H     -1.163674574093     2.986801080529    -0.369124300447
C     -2.564695298132     2.215300091369    -1.831488415849
O     -3.278930617003     1.234882027673    -2.172112415163
O     -2.300763149922     3.273089611322    -2.717615314039
C     -2.886072576148     3.159570667281    -4.021849219409
H     -2.609605842108     4.049073707043    -4.627656956338
H     -2.507627802512     2.252162636982    -4.545541086880
H     -3.996847259246     3.113969880713    -3.955587075150
Pd    -0.465610886063     0.321671081791    -0.644251523984
C      0.209246570931    -2.116706596440     0.718194382609
O     -0.662415551647    -1.073417354016     0.812219713927
O      0.212191537354    -3.055347911329     1.532495517843
C      1.217425550012    -2.084539192174    -0.502869574756
H      1.051585570874    -3.008612553491    -1.075519731293
C      2.654599124917    -2.039105994754    -0.030874676251
H      3.342089059957    -2.126151345796    -0.894705817635
H      2.839772051516    -1.075890224458     0.486229176403
H      2.854238438600    -2.875486904854     0.671295490715
N      0.945416043333    -0.893079938804    -1.274953587156
C      1.198120727505    -0.304476357129    -2.416144044150
O      0.558925650391     0.826634882215    -2.623574335429
C      2.127383174438    -0.856161889476    -3.409254770848
H      3.133407310333    -0.880888498698    -2.960509466320
H      1.781770865545    -1.869501111816    -3.672329301546
H      2.121009119026    -0.200026911236    -4.298525184441
N      2.669054168811     1.712994984853     1.997606447773
C      3.635815603717     0.886834624630     2.505176558910
C      3.274777932321    -0.221581495902     3.251569766318
C      1.943688255155    -0.490621636136     3.505816978167
C      1.003202618898     0.375299584957     3.010752299836
C      1.433896666863     1.476570535441     2.246263829924
H      4.680501439211     1.091703105625     2.302669689775
H      4.038356093923    -0.878230438492     3.634713072676
H      1.648018835400    -1.366993788724     4.077342454165
H     -0.047181656395     0.212367380693     3.151751503184
O      0.428298634471     2.257711301604     1.774674542753
H      0.784463560817     2.978092652190     1.207152803151

