# STO-3G

title

0 1
C     -0.013593210466    -3.232190132863     2.930847183323
C      0.202695541361    -3.298758381509     4.322689523874
C     -0.458720052693    -4.280589248144     5.086767898629
C     -1.328925009360    -5.196442892636     4.460986353787
C     -1.543314081636    -5.126894948153     3.069567611184
C     -0.887817130568    -4.142624490724     2.302279630788
H      0.501867249489    -2.473924729994     2.344725846588
H      0.880386311324    -2.587453796730     4.786487762424
H     -0.297983792107    -4.332064490271     6.161707553392
H     -1.837649455294    -5.955282488147     5.052234584009
H     -2.218346580299    -5.830800184631     2.586957993731
H     -1.056399827405    -4.068963252105     1.231168012213
C     -0.509865050395     0.288802735884     2.922264794613
H     -0.343003383195     1.362360863473     2.918258617138
H      0.260908511668    -0.297696284600     3.411201348267
C     -1.681698205197    -0.285796395790     2.461248868977
H     -1.823728428223    -1.350735335393     2.576732911628
C     -2.838690855543     0.462126796277     1.940971288568
O     -2.678363546525     1.647475822865     1.546816805936
O     -4.030850437391    -0.235036100282     1.684997189971
C     -5.096086317655     0.532977971385     1.107537042709
H     -5.983744877996    -0.120081215909     0.963341303463
H     -5.387498271266     1.373028577168     1.778192467987
H     -4.798700843410     0.938276094159     0.113756525145
Pd    -0.120365288785    -0.248757366345     0.694704679509
C      1.914152211743     1.393720725417    -0.557118853362
O      1.172988964271     1.335491834922     0.597691700825
O      2.832531554694     2.210866164546    -0.711113776791
C      1.541439251379     0.340357205829    -1.666803408812
H      2.482565083132    -0.118529216020    -2.001772764425
C      0.860116572357     1.003364041308    -2.844589077288
H      0.633915731877     0.250594650958    -3.626329250348
H     -0.090297306933     1.469168378098    -2.509164569803
H      1.518938183141     1.785833690717    -3.276531887137
N      0.626524960409    -0.613472363995    -1.087175528677
C      0.099971177451    -1.798759044293    -1.263822190238
O     -0.725412797179    -2.191068253154    -0.317429837767
C      0.400711696904    -2.660808294638    -2.413569039428
H     -0.546649502145    -2.847316334200    -2.947345766778
H      1.128497425463    -2.158418573178    -3.070880198625
H      0.815780842820    -3.607967751546    -2.026807433777
N      2.746978488599    -1.417693609740     3.370106711050
C      3.470292330367    -2.561736047329     3.159287053241
C      4.444899602498    -2.593959091682     2.177203188651
C      4.716348347412    -1.471638343764     1.423606046497
C      3.986559160366    -0.336054212642     1.663163224822
C      2.993406935104    -0.367048772434     2.677191058779
H      3.264165339764    -3.445886073027     3.751316974880
H      5.004331083967    -3.500954471102     2.018255377023
H      5.497126506575    -1.483697594797     0.667786323049
H      4.185310950376     0.582386504622     1.145265647076
O      2.319836202164     0.789575775610     2.907232735484
H      2.042005020112     1.259475853864     2.070440475254

