# STO-3G

title

0 1
C      0.121788956624    -2.988068250077     2.437047405653
C      0.582032414208    -3.366396067405     3.715467529548
C     -0.037306415642    -4.440796764899     4.386173908182
C     -1.107692964351    -5.133047312759     3.783642826971
C     -1.564798951987    -4.750638661134     2.506350061473
C     -0.949502216375    -3.677149412751     1.831212147674
H      0.607601178334    -2.154303577454     1.934151469527
H      1.409093698838    -2.818657802690     4.163124519737
H      0.312365791781    -4.735648593274     5.373224001264
H     -1.583640722013    -5.961424866460     4.304633048980
H     -2.394144497959    -5.280518668102     2.042447780742
H     -1.314728989804    -3.373529495073     0.852031509935
C     -0.538534414190     0.771416174254     2.578421606533
H     -0.555394354406     1.833764670783     2.345336031807
H      0.371786597235     0.373843037864     3.019287985123
C     -1.658842134505    -0.033727144370     2.459068903636
H     -1.611846587025    -1.055253564211     2.806444576961
C     -2.978724160455     0.424948865894     1.991573126032
O     -3.070819465578     1.532072657351     1.395377069178
O     -4.084473292983    -0.429954439404     2.130380197475
C     -5.303929108046     0.020042339254     1.524882786282
H     -6.100591961304    -0.734623569988     1.699413516464
H     -5.634708597659     0.986112771350     1.969084895642
H     -5.175138319052     0.140085718903     0.424974517594
Pd    -0.441267791064    -0.135324085011     0.433389859441
C      2.158409364111     0.203656196765    -0.828369644234
O      1.525233319379     0.450761103247     0.361600504770
O      3.376890643582     0.372256344373    -0.975088055297
C      1.232738554330    -0.308232977768    -1.993476571446
H      1.738168885632    -1.168812497106    -2.453375382794
C      1.019998721694     0.767614131202    -3.037362383087
H      0.397784452996     0.375345743830    -3.866676309194
H      0.499529365433     1.633851492659    -2.577869275123
H      1.996665372954     1.101204074081    -3.446885555664
N     -0.046404743940    -0.653479585464    -1.420767092074
C     -1.178242433716    -1.262672101942    -1.666793090599
O     -2.049850377070    -1.234582762679    -0.676987650509
C     -1.477709786575    -1.956877674098    -2.924778379509
H     -2.357627238004    -1.466920484709    -3.375147447477
H     -0.606262153376    -1.894395599038    -3.596262715096
H     -1.706223185432    -3.009901577832    -2.684221404220
N      3.434270520099    -1.572099348543     4.188458975276
C      4.627572986588    -2.076082968443     4.628673470718
C      5.787466767567    -1.839063228032     3.911689175255
C      5.752053136943    -1.092221385912     2.752654185101
C      4.544670054385    -0.593272029563     2.335847368352
C      3.390785158958    -0.871628668559     3.116018450202
H      4.659400029811    -2.665474176449     5.537474283418
H      6.720978475764    -2.243072264826     4.265926925145
H      6.659053757762    -0.902058127856     2.184953798564
H      4.465750900603    -0.002529474931     1.443860319865
O      2.213120106364    -0.361429029568     2.686298736636
H      2.170742643972     0.043676795812     1.768000158122

