# STO-3G

title

0 1
C      1.185344200422     1.465298459747    -2.813420961132
C      0.686840716222     0.955731577600    -4.029633806442
C      1.581750234177     0.579825046163    -5.051628145635
C      2.971601349723     0.713320404047    -4.855906180402
C      3.467097126557     1.222870123173    -3.638145642424
C      2.574053377328     1.599715233243    -2.615194184881
H      0.509226413549     1.756806391236    -2.015812562700
H     -0.386025901244     0.847212777286    -4.176669090277
H      1.199025749358     0.190422109155    -5.992643492203
H      3.661779017708     0.425597712106    -5.646219528954
H      4.539576275638     1.325052121737    -3.487322425804
H      2.934929828489     1.984242123203    -1.665271447412
C     -1.794973617787     2.156055541801    -0.547968503648
H     -2.471833901452     2.293988618568    -1.387782730229
H     -0.845239128841     2.681966396928    -0.591206081184
C     -2.167381863295     1.526780442556     0.633828104875
H     -1.465811936979     1.551046134221     1.458117939879
C     -3.514830870138     1.004902804541     0.921723251056
O     -4.378835298101     0.970917442541     0.006522787571
O     -3.770536834841     0.455638523137     2.188998974652
C     -5.089215185945    -0.072585293493     2.389700668294
H     -5.171820327098    -0.473003369321     3.423174969682
H     -5.858109801984     0.722975378269     2.262222254134
H     -5.295634202600    -0.903774067126     1.677599872814
Pd    -1.131015350316    -0.010254045108    -0.796693560984
C      1.142131266498    -1.377085150903     0.324217000315
O      0.420992311722    -0.210446193280     0.479387334827
O      2.041885044745    -1.695748955731     1.108006408082
C      0.751036748264    -2.265525188199    -0.919990360196
H      0.591535216387    -3.287586399942    -0.547237663553
C      1.863962640614    -2.273213492095    -1.947855279973
H      1.604351977475    -2.940042382966    -2.792976879561
H      2.017595677326    -1.247161145306    -2.340405795353
H      2.808353439097    -2.630564687113    -1.486562894157
N     -0.435960971583    -1.700558121329    -1.519771814857
C     -1.345536511531    -1.889907477378    -2.445606903278
O     -2.238584470814    -0.933679579388    -2.564359972348
C     -1.404937162262    -3.086072309720    -3.295533722638
H     -1.250912093270    -2.761876139000    -4.338481815098
H     -0.625537566145    -3.799062798617    -2.983687835058
H     -2.406435849080    -3.535143334986    -3.176345229374
N      0.168628912438     2.958854435080     2.173086131095
C     -0.146335774896     3.976221092999     3.033197852259
C      0.526475259967     5.183169638491     2.953818175065
C      1.521509777680     5.369045348845     2.015862802167
C      1.821284959880     4.330308492945     1.172699914953
C      1.107592799057     3.119680853600     1.307086251479
H     -0.931018618151     3.836269938012     3.767459235239
H      0.268923608184     5.978924191117     3.632856852487
H      2.054758677377     6.313492075715     1.948612060367
H      2.585565490106     4.398067765289     0.425369647172
O      1.478079175455     2.169385672275     0.430474374146
H      1.089202745089     1.254421282458     0.603668750604

