# STO-3G

title

0 1
C      0.757289718047    -3.117830915746     0.191049675379
C      1.713280936755    -3.136512288396     1.227788322784
C      3.085200364455    -3.226865888349     0.918336657465
C      3.501910542763    -3.305453599921    -0.427245358796
C      2.544538853137    -3.297260339846    -1.462444304298
C      1.172228807913    -3.204239345554    -1.153124671065
H     -0.293812773124    -3.049398446150     0.454466352666
H      1.375896113009    -3.085634757670     2.259616934201
H      3.820482980874    -3.245182670925     1.719675448048
H      4.560530993187    -3.384417714680    -0.665310749727
H      2.863024587373    -3.366878815509    -2.500198148949
H      0.437444973042    -3.191624808364    -1.954569286857
C     -2.697910708067    -1.170824585660     0.430786361906
H     -2.983747322501    -0.738472958365     1.386978374841
H     -2.372285384979    -2.206770314758     0.483714700928
C     -2.877861488925    -0.557393474808    -0.797050302405
H     -2.671585776316    -1.109151557441    -1.704409460017
C     -3.485871648290     0.769632682437    -0.993183571812
O     -3.539547113563     1.574303317840    -0.026491296494
O     -3.824656238738     1.169343517371    -2.296460908575
C     -4.324221698913     2.507353278491    -2.432402328581
H     -4.561809036302     2.704891913346    -3.499952691079
H     -5.255105733360     2.645583568253    -1.836790938513
H     -3.561274185104     3.249649993352    -2.104393789958
Pd    -0.715893674664    -0.088272359038    -0.050432938991
C      0.979373982981     0.157279294729     2.294246289388
O     -0.306150286721    -0.184256167995     1.950315383630
O      1.397614979667     0.063910260720     3.454651535641
C      1.894400476822     0.650847955925     1.110994367425
H      2.789740446857     0.013226741203     1.119593600151
C      2.298358023680     2.097553641449     1.291487342782
H      2.979692996943     2.404468052764     0.473142677276
H      1.393125482676     2.739521583600     1.268561447687
H      2.818658271841     2.230479032545     2.263190653447
N      1.143717963907     0.537610569172    -0.116305417239
C      1.306527501130     0.413725645592    -1.409689727845
O      0.207310871458     0.153787656692    -2.088314785586
C      2.618587661436     0.502120016531    -2.059229589546
H      3.025241559209     1.509372197084    -1.873585073859
H      3.263012053870    -0.276372213269    -1.616894964684
H      2.486991328454     0.328005581940    -3.142157955407
N     -3.256954571952    -1.773423892158     3.440680077566
C     -4.447020322839    -2.049820967719     4.057255944951
C     -4.690926082447    -3.319036125550     4.553333673599
C     -3.737394916694    -4.310149228256     4.438195100800
C     -2.551297462694    -4.002242403581     3.823176595280
C     -2.355461458180    -2.687604641719     3.346259712097
H     -5.200267267730    -1.275570189519     4.144588806460
H     -5.631917963801    -3.527760957878     5.034344529236
H     -3.920939944629    -5.307990231328     4.827273368979
H     -1.760612025880    -4.715306871094     3.706294528073
O     -1.159863966830    -2.493401264144     2.762303651175
H     -0.930307810403    -1.527784467310     2.562189734245

