# STO-3G

title

0 1
C      0.660308499896    -2.105297946541    -1.814070115457
C     -0.579905053986    -2.200329358228    -2.477591480959
C     -0.615370472109    -2.520950380534    -3.849223899358
C      0.584451623036    -2.746105877648    -4.554281245276
C      1.823026771192    -2.654868853008    -3.887542915031
C      1.859772306975    -2.333502783772    -2.516151043547
H      0.690302689326    -1.844755604913    -0.758872147531
H     -1.500247618705    -2.032588625216    -1.924961453367
H     -1.571264755092    -2.596112552494    -4.362249613319
H      0.554856149636    -2.994796560719    -5.612810360372
H      2.749018716729    -2.834669733051    -4.428975424958
H      2.811900245012    -2.267463398374    -1.991863360148
C     -0.029547604011    -3.011370187617     1.755023456453
H      0.093511448234    -3.406647591701     0.751854988018
H     -1.038132758996    -3.024116453789     2.155362128297
C      1.042171791473    -2.605928560373     2.534843835815
H      0.885494555952    -2.294075216416     3.557259790718
C      2.451155011028    -2.638400022360     2.104330825182
O      2.722651168423    -2.771704524687     0.881070512419
O      3.457486120928    -2.424329668875     3.060470046981
C      4.795674045797    -2.336141165649     2.552091472380
H      5.498824308671    -2.166184027951     3.395585906556
H      5.088327411022    -3.279970241605     2.038500328428
H      4.891714669646    -1.481784343623     1.843734685147
Pd     0.160539130240    -0.730768916733     1.408133862288
C     -2.123846789435     0.196387802765    -0.058556474878
O     -1.635682995408    -0.955732836142     0.486248860534
O     -3.276655965261     0.280993909842    -0.511313740411
C     -1.125556772358     1.419988005020    -0.118549607869
H     -1.670989742088     2.307363022961     0.231431551431
C     -0.638582735061     1.652108273794    -1.533596280426
H      0.032159377214     2.533267189520    -1.568099784540
H     -0.077315766077     0.761134934046    -1.885975262983
H     -1.501214036709     1.828343549423    -2.209813586733
N      0.011764245724     1.100502429978     0.713168402609
C      1.082670398917     1.598837486209     1.275531397664
O      1.801032104157     0.753390358774     1.987022338777
C      1.479478846335     3.007719389997     1.152765213899
H      2.463307662861     3.033480190027     0.654459398139
H      0.725530857933     3.551779108237     0.561775335495
H      1.552344655724     3.427972994160     2.170288537108
N     -0.197998422821    -0.528140195133     4.744308390780
C      0.280936133245     0.754325239935     4.786446700758
C     -0.478451049594     1.790240114135     4.264923550661
C     -1.703711452565     1.534852241927     3.679485481673
C     -2.147351840593     0.237799902685     3.643287932892
C     -1.342555914351    -0.763000631380     4.217939845806
H      1.249054711277     0.954937080734     5.230372966020
H     -0.101292562742     2.797474168491     4.313827286506
H     -2.298297695605     2.338855495537     3.254485539013
H     -3.080935132483    -0.042624205702     3.193557560915
O     -1.861544104948    -2.015869590793     4.139430550890
H     -1.269873562702    -2.645990722802     4.600595188217

