# STO-3G

title

0 1
C      0.142414736779    -3.047363539494     2.873859846211
C      0.729525364578    -3.082179949813     4.154340135392
C      0.374779007216    -4.096102898218     5.066336469420
C     -0.565626696250    -5.077497355098     4.694041455025
C     -1.149016933266    -5.044972002073     3.410783067080
C     -0.795285787480    -4.030699532013     2.498725693224
H      0.423525815099    -2.272906246340     2.166942588140
H      1.461606852792    -2.326655760342     4.439052831372
H      0.827084644253    -4.120995933775     6.055355730150
H     -0.839924655516    -5.860799694290     5.397371136309
H     -1.872661221626    -5.805110711080     3.124459368277
H     -1.230083279557    -3.994940007602     1.503494108024
C     -0.480136747068     0.470836145121     2.687140591972
H     -0.302615537701     1.537180697624     2.585062042634
H      0.284998103919    -0.087418950871     3.215275785737
C     -1.675309888805    -0.129905039201     2.325890579493
H     -1.824355911027    -1.176506158708     2.549747859837
C     -2.852406040996     0.583156110824     1.801367999406
O     -2.721805795077     1.755942392108     1.362785887644
O     -4.051781418021    -0.128692697610     1.635330976011
C     -5.141307321217     0.603555927345     1.056443664433
H     -6.031647415743    -0.057675338826     0.983633610632
H     -5.409821494622     1.480309115346     1.688655358126
H     -4.883545317377     0.952324937425     0.030555970212
Pd    -0.186760064921    -0.267218968679     0.526837648738
C      1.687408618058     1.367260016688    -0.953305626359
O      1.006616820970     1.369119097017     0.241230952215
O      2.533567010702     2.225377475681    -1.232209776217
C      1.336593202298     0.193395906797    -1.943443119213
H      2.292765239478    -0.252932149529    -2.250443270058
C      0.603088617803     0.707189830031    -3.164272743910
H      0.395963202124    -0.127204860998    -3.863754827728
H     -0.359664297607     1.163044220779    -2.852082966409
H      1.217966990807     1.470970961006    -3.685229543533
N      0.478840872580    -0.743457605102    -1.257072458099
C      0.002229578853    -1.958974761576    -1.313527094283
O     -0.762097636141    -2.309993391267    -0.300571699479
C      0.311873169161    -2.905798510932    -2.392412853625
H     -0.639344814369    -3.180316577218    -2.878702580493
H      0.998475665722    -2.431238065444    -3.111851932527
H      0.781994073160    -3.794569102070    -1.936907648014
N      2.623024770528    -1.106805510154     1.510239051464
C      3.165309692172    -2.363035338595     1.570611176916
C      4.059496761564    -2.683707085297     2.575741666564
C      4.420666600627    -1.743559343313     3.518060098105
C      3.869395942537    -0.491774782455     3.429678916083
C      2.969148722961    -0.215511981696     2.377908844925
H      2.876184885702    -3.109065369822     0.839563390994
H      4.469294996022    -3.679183333184     2.621689509501
H      5.123392960776    -1.989040711673     4.309789305131
H      4.111603822475     0.293589355539     4.117584161632
O      2.497853672800     1.040150794608     2.385663681472
H      1.945526414756     1.268855048084     1.572558215012

