# STO-3G

title

0 1
C     -2.622898004692    -0.500181668238     4.340318465616
C     -3.972676768819    -0.101842662506     4.420021380142
C     -4.364259077071     0.908672747515     5.321948011127
C     -3.404775459603     1.522811838526     6.151891249641
C     -2.055073726462     1.121429105297     6.080493828249
C     -1.667238928296     0.111777465074     5.177107051049
H     -2.308358323138    -1.270159576361     3.642095572873
H     -4.715376368460    -0.576505735223     3.781705241638
H     -5.407333542770     1.213854488767     5.379745954901
H     -3.705530663131     2.302310821195     6.849068051301
H     -1.313252057250     1.590551993671     6.723942510686
H     -0.628326846347    -0.205094125342     5.114894976809
C     -2.197462053612    -0.029686324752     0.955591862689
H     -2.943312727259     0.227469254720     0.206250411496
H     -2.146297383130    -1.066405483586     1.281338830642
C     -1.480210589398     0.939946953711     1.641394509605
H     -0.842355766286     0.621768151887     2.449577424575
C     -1.665165700847     2.393344920080     1.499987467124
O     -2.331569151388     2.841242613060     0.529471759225
O     -0.907868308363     3.248692196358     2.317784536783
C     -1.115239328773     4.653727404938     2.117423314098
H     -0.476755371183     5.223967372201     2.826010048902
H     -0.837251544778     4.951916232071     1.081059085146
H     -2.177589677838     4.927276677162     2.309604907165
Pd    -0.271163209586     0.179476330005    -0.242309563346
C      2.446317837170    -0.727862611173     0.186521495161
O      1.343585872948    -0.323896944088     0.901842867199
O      3.416247634970    -1.273329764080     0.729529048114
C      2.387594692771    -0.452636957930    -1.363037113069
H      2.714938259330    -1.374152244279    -1.865517860769
C      3.309338914572     0.682717782143    -1.752238715943
H      3.295589770583     0.820755833066    -2.851828503039
H      2.967843160397     1.621030480204    -1.267126045742
H      4.348504644696     0.459713787485    -1.430876502898
N      1.032784274202    -0.081356711577    -1.695148478449
C      0.191488972583    -0.018223990421    -2.700053165025
O     -1.049345236928     0.270341183262    -2.382704767841
C      0.595466787919    -0.264461719684    -4.089929636307
H      1.343589879484     0.495691080595    -4.368051795123
H      1.018146796693    -1.280721145184    -4.148173658674
H     -0.297910949742    -0.177770413691    -4.735114329149
N     -1.628301496059    -3.154564825298     2.161939430431
C     -1.971923580254    -4.418030536412     1.763972565962
C     -0.991748084104    -5.305523593359     1.354437391005
C      0.337028031845    -4.934424021527     1.362839391545
C      0.656125584447    -3.667689718582     1.780234454112
C     -0.393010244025    -2.804721199926     2.189148216946
H     -3.014392315628    -4.714061371179     1.754432996973
H     -1.273782387807    -6.296427967321     1.039043287463
H      1.111945764444    -5.631950021879     1.056012864200
H      1.674286333327    -3.334010489997     1.843034715388
O     -0.042473349133    -1.574586996379     2.634922610231
H      0.722070701369    -1.149674480885     2.137675015650

