# STO-3G

title

0 1
C     -2.671060948883    -0.395277545148     4.196565660477
C     -3.948062052859     0.183462949209     4.044059742182
C     -4.277263475089     1.375047287749     4.721732637975
C     -3.328826423960     1.993492710526     5.561281990276
C     -2.054353665056     1.413236515247     5.725441013053
C     -1.729387559178     0.221931832400     5.046051126322
H     -2.400518398270    -1.299966265812     3.656466607939
H     -4.681951105254    -0.289929162160     3.394364411038
H     -5.263523705168     1.818210960676     4.596745023236
H     -3.580786302781     2.913637054219     6.084511835132
H     -1.320396565173     1.886374961202     6.374868405095
H     -0.744390389726    -0.225551441541     5.162908870651
C     -2.048011485917    -0.195475944361     0.842584261922
H     -2.828370353254     0.129880383070     0.158762302974
H     -1.965451520482    -1.260165874713     1.040281053346
C     -1.357770304926     0.696438636303     1.652579912291
H     -0.688727629717     0.289396580789     2.391667661276
C     -1.629902095476     2.139584141723     1.752982999794
O     -2.417301233943     2.683118672023     0.933187170163
O     -0.847306818374     2.909998374789     2.629416471986
C     -1.212659325427     4.292055649099     2.740214976376
H     -0.539343870468     4.792471444156     3.468610641315
H     -1.111944867313     4.809443220386     1.759161411363
H     -2.259014007260     4.393013219123     3.108390837181
Pd    -0.137975111419     0.203627418276    -0.307261621223
C      2.417170861687    -1.139186046854    -0.077666832698
O      1.345491386051    -0.767646382277     0.696959235788
O      3.282634028711    -1.923537468100     0.332967174460
C      2.465602675635    -0.497222882204    -1.515800237033
H      2.676167511403    -1.311917706404    -2.223678477310
C      3.560483232171     0.542959561838    -1.612734150809
H      3.615193265231     0.938798099085    -2.646505266666
H      3.339687015356     1.380061158360    -0.917791543740
H      4.540596124564     0.093562814348    -1.347559820861
N      1.195612737654     0.146122877925    -1.758081303816
C      0.415820367453     0.568376870194    -2.726100204398
O     -0.788603463262     0.942155016493    -2.361135168066
C      0.845404770596     0.613006758350    -4.129370135127
H      1.699717558763     1.305595550131    -4.203017574259
H      1.131605810384    -0.407372500767    -4.432253623530
H      0.001429218930     0.978041852758    -4.742893685263
N     -1.755397506509    -3.309200695516     2.468094954851
C     -2.250175311517    -4.561423526982     2.223755147486
C     -1.418306761978    -5.550177605452     1.727478100593
C     -0.083975819653    -5.290016357777     1.492570543541
C      0.390632659582    -4.031486734496     1.759722143759
C     -0.510597138610    -3.061250053124     2.270118471445
H     -3.298160623626    -4.770135702954     2.404337675269
H     -1.819393062716    -6.531283222727     1.534305523471
H      0.576271884777    -6.065723525107     1.113756640651
H      1.425502463437    -3.779709179692     1.625963809091
O     -0.004061532224    -1.840133398659     2.557540055922
H      0.740612555298    -1.528779935445     1.953645810419

