# STO-3G

title

0 1
C     -3.300632261849     0.847789826154     2.053861686740
C     -2.893177287037     0.928078999772     3.400489605755
C     -3.127765824663     2.107310989173     4.135795385417
C     -3.770664365193     3.203785172856     3.525428178827
C     -4.181915773902     3.120007378720     2.179308827010
C     -3.947308987345     1.941330387488     1.442711928177
H     -3.115467334714    -0.069625973412     1.504242399487
H     -2.401071474670     0.071550680578     3.852936391283
H     -2.815446581586     2.169668327151     5.176034235188
H     -3.955676301948     4.112067729055     4.095224828866
H     -4.687387846798     3.962111912742     1.711075336012
H     -4.263086238365     1.874511179204     0.403401622620
C     -2.596957024510    -1.986665788492    -0.403421319184
H     -3.420970125989    -1.721701867606    -1.062115862912
H     -2.795656616820    -2.067624546611     0.661074343008
C     -1.364247243214    -2.397728482207    -0.891298965234
H     -0.618828256578    -2.745126824590    -0.188620409194
C     -1.037554620838    -2.603031465726    -2.312813714598
O     -1.839599320964    -2.212282278756    -3.200527941870
O      0.234431394270    -3.098445649096    -2.644325972951
C      0.508480936450    -3.233630146094    -4.046229551528
H      1.534559255519    -3.637870615810    -4.183968073241
H     -0.209848906220    -3.938128073321    -4.524053743903
H      0.452657491468    -2.245955800655    -4.558207363679
Pd    -1.277185685710    -0.099365140377    -0.500110152314
C      0.922728657407     0.853629247334     1.121780135997
O      0.208964524991    -0.297963722093     0.873085262566
O      1.924801154980     0.853798931357     1.846090889640
C      0.371025530017     2.161076599486     0.434962359141
H      1.208939789198     2.610512321578    -0.117718823341
C     -0.131516100462     3.145614985794     1.470101165295
H     -0.409176250013     4.101073424561     0.984623877657
H     -1.023294437452     2.727717795892     1.981838306820
H      0.658750457128     3.348511666363     2.222898025577
N     -0.723225710905     1.785428504645    -0.431135923598
C     -1.561621450362     2.247381403485    -1.326545939829
O     -2.394231209790     1.363176200978    -1.829769614739
C     -1.594658873588     3.653967811067    -1.743827258154
H     -2.337717783072     3.755483078599    -2.554895747094
H     -1.896935955499     4.258228128254    -0.873686931207
H     -0.589184149821     3.935743610394    -2.100024799084
N     -1.966962992720    -3.925985388204     2.415067343382
C     -1.690612222666    -5.255439374358     2.585593636153
C     -0.390490962065    -5.667512555416     2.823528363628
C      0.632565357766    -4.745465203908     2.903913371638
C      0.326479392855    -3.418090414417     2.743223285389
C     -1.026375312358    -3.060204925811     2.504411809206
H     -2.490160331503    -5.983904284257     2.518866112071
H     -0.182872732506    -6.717104063465     2.949795991281
H      1.654177655361    -5.062811799509     3.095774774625
H      1.077365330127    -2.655553263035     2.816158741644
O     -1.299613877920    -1.738042238518     2.366400235699
H     -0.559204394207    -1.176201465995     1.988498088502

