# STO-3G

title

0 1
C     -0.073991142725     0.233913884571     1.800664392622
C      0.343740406334    -0.789495120502     2.675609180151
C     -0.223012134016    -0.896482448184     3.961403630033
C     -1.206909065891     0.024381318335     4.375653156878
C     -1.622058858518     1.050863724722     3.503360401439
C     -1.056934554522     1.155008795824     2.216373815620
H      0.375446588673     0.300942270854     0.812955596611
H      1.108583501873    -1.493075819082     2.351530848480
H      0.101952657757    -1.686731221404     4.635198036902
H     -1.643342086050    -0.055994798916     5.368968928764
H     -2.382184488806     1.761052904307     3.820224510014
H     -1.383808182634     1.938665180234     1.538041836768
C      1.274196893956     1.134230580496    -2.371687939698
H      1.927975716990     0.866987210351    -1.541410260708
H      1.416782995709     0.572172408169    -3.293150288078
C      0.346943210476     2.162163246090    -2.318833775267
H     -0.247555235821     2.398574678262    -3.189418572397
C      0.186782979581     3.097250226702    -1.190429139209
O      0.827433169664     2.903155274898    -0.122439690063
O     -0.615949144616     4.236599511269    -1.365832775145
C     -0.829277317115     5.036872609365    -0.195067729693
H     -1.483776757206     5.897047480335    -0.452702579758
H     -1.336769374512     4.443634488973     0.599282962372
H      0.134416311486     5.435298491194     0.195418158959
Pd    -0.619244997464     0.117561972534    -1.619008131314
C     -3.273762933974     0.603242870724    -0.659035586759
O     -2.173062671745     1.284630828010    -1.103847665000
O     -4.322580036810     1.189947012408    -0.356179884953
C     -3.145837126582    -0.972677847919    -0.573789167828
H     -3.918929244736    -1.387989195841    -1.236561916830
C     -3.369543152519    -1.479333022804     0.835145691497
H     -3.423424067682    -2.585091095808     0.838860888815
H     -2.536061586003    -1.152782097754     1.489467251625
H     -4.323172100449    -1.078892391378     1.238349603876
N     -1.812884628119    -1.329670486713    -1.012945463610
C     -1.024861162018    -2.339966331443    -1.247408321102
O      0.150421520691    -2.023361744477    -1.763279832029
C     -1.388805122335    -3.732367251548    -0.967864971072
H     -1.508518566104    -3.840286488246     0.122891364833
H     -2.331060623256    -3.952422102722    -1.496532367102
H     -0.576809100427    -4.390210782506    -1.327902648223
N      2.657857507186    -0.327200954848     0.088898279683
C      3.286156350015     0.516915557208     0.966923708734
C      4.458247235678     0.120888187845     1.585468639569
C      5.003364141664    -1.118604354447     1.324358242000
C      4.348616854056    -1.945183081615     0.448040968086
C      3.150045000936    -1.495714020553    -0.148682869060
H      2.863778201070     1.494001046824     1.171714285673
H      4.944028682943     0.792694813349     2.273510003689
H      5.925823028783    -1.433465617226     1.804597348183
H      4.709844392626    -2.923087355185     0.202402373484
O      2.589245918484    -2.395786044120    -0.964604879607
H      1.661152052688    -2.184229350841    -1.293801672983

