# STO-3G

title

0 1
C      0.227731456202    -0.570979480683    -1.736898954372
C     -0.957334262438    -0.313654737607    -2.455057542293
C     -1.626565860726    -1.363805126324    -3.116098157269
C     -1.108416891092    -2.673927470593    -3.062363877879
C      0.082801918223    -2.931757521928    -2.352672868206
C      0.750159640353    -1.880106891663    -1.693087700785
H      0.756074719758     0.227947654380    -1.221211396431
H     -1.353421531259     0.697588700305    -2.498109604418
H     -2.542138277409    -1.160550947404    -3.665916857556
H     -1.623071210974    -3.484025549653    -3.574206775797
H      0.490894909733    -3.939613152595    -2.319668629437
H      1.673316660886    -2.072331514598    -1.149245076551
C      1.150029339809     2.895232778613     0.950472321772
H      1.842424911647     2.267446650546     0.382925572551
H      1.356568398572     2.998204138032     2.014521837166
C      0.102451520295     3.599488431098     0.377799979927
H     -0.517119518383     4.239689651873     0.988818819611
C     -0.180296650244     3.666280267135    -1.067648303326
O      0.446622937525     2.915183826762    -1.862528844595
O     -1.118328107612     4.603379236961    -1.530943464594
C     -1.489275014337     4.483680806164    -2.911020315474
H     -2.241387808607     5.263342263999    -3.158095363120
H     -0.606545348935     4.626209836339    -3.574597874152
H     -1.948336006030     3.487792594719    -3.108455679137
Pd    -0.586506441490     1.428502086973     1.013127599073
C     -3.172581684295     0.883278491325    -0.099993592829
O     -2.277966193254     1.911384297937     0.030627628973
O     -4.198908730474     0.998586418978    -0.785767079342
C     -2.823070776546    -0.456793671422     0.661963015841
H     -2.834085575706    -1.263853562630    -0.083219376707
C     -3.829808029402    -0.752845166954     1.751191268860
H     -3.585544583711    -1.717174255779     2.239489178783
H     -3.801818594402     0.055656908139     2.510646446103
H     -4.850528949352    -0.815914241064     1.319044026208
N     -1.522989908837    -0.286008954529     1.273656958355
C     -0.507790611679    -0.988929233176     1.690835188497
O      0.574692476377    -0.288151003834     1.980787483548
C     -0.530882966934    -2.451580111844     1.783393573172
H     -1.311223094892    -2.737934481604     2.507117524977
H     -0.757620434396    -2.847851182580     0.778307828713
H      0.461225213203    -2.802537088940     2.121122632365
N      2.980071774627     0.724861697500    -0.467358289534
C      3.563342063312     1.191057295744    -1.615869334759
C      4.752949283649     0.641450723456    -2.058559926235
C      5.357984653525    -0.377446441571    -1.353431993849
C      4.745626452633    -0.832422225274    -0.214342007114
C      3.527447762253    -0.242057403837     0.188900338433
H      3.093142249993     1.994616787489    -2.170864069780
H      5.203833245633     1.016670149497    -2.962136337584
H      6.293335506991    -0.812134106789    -1.695299705847
H      5.153892617746    -1.625269427556     0.378729509668
O      3.010606508314    -0.791308168084     1.293107985317
H      2.075576312767    -0.508129276146     1.551361841369

