# STO-3G

title

0 1
C      0.002328359316     1.501290797907    -2.417427223480
C      0.087654924864     0.364460177591    -3.266787282962
C     -0.962753163166     0.071786321465    -4.160330970451
C     -2.083798652937     0.915369945853    -4.222701109703
C     -2.177748761461     2.048779571622    -3.381007420899
C     -1.142925600409     2.341945318499    -2.485818074165
H      0.880901093647     1.837366621147    -1.869339973051
H      0.977613822479    -0.255433395898    -3.226178895674
H     -0.894815338857    -0.799835544182    -4.805537263271
H     -2.887814796066     0.699114250478    -4.922939137662
H     -3.053259670334     2.691740956742    -3.429734653887
H     -1.210726042411     3.211843779812    -1.837861478725
C      0.976919096644     2.698571783866     0.985106792432
H      0.811453466047     2.122637517293     1.889568354138
H      0.096103332976     3.205514302490     0.598344507022
C      2.177153581371     2.780264872246     0.367135771729
H      2.289259350190     3.376929793677    -0.529232462329
C      3.392116116023     2.070338228174     0.797643576361
O      4.482193662789     2.339158796276     0.227389538677
O      3.330069766087     1.144885879609     1.860520240144
C      4.552898232429     0.449395062979     2.144765953588
H      4.393080212095    -0.259312833502     2.984041082393
H      4.891436118538    -0.133865415647     1.256759571815
H      5.355048955170     1.163572988338     2.439681765251
Pd    -0.000832325843     0.169611474609    -0.427792221760
C      2.359333057836    -1.429375828346    -0.171460295208
O      1.780432144513    -0.547340719295    -1.009474845131
O      3.494191384129    -1.913008451146    -0.341491109542
C      1.475350347640    -1.843270541786     1.050472726972
H      2.161447923528    -2.029827322097     1.886849409271
C      0.699339192414    -3.108955074947     0.754717467460
H      0.107418881202    -3.407883427805     1.643320020414
H      0.003198369104    -2.929030612908    -0.091923965405
H      1.395462676768    -3.932162092099     0.489119479472
N      0.485056166344    -0.785114743180     1.318989101769
C      0.048612347445    -0.377626140765     2.476213939195
O     -0.876975268447     0.555351090865     2.623371997236
C      0.602899819269    -0.912654800703     3.732484895046
H      0.449507478130    -2.004324344889     3.751402672369
H      1.673670494669    -0.647822099458     3.771165957977
H      0.080459681532    -0.449156140992     4.590162911655
N     -2.907107321727    -0.382341027836    -0.997790102410
C     -4.113375967219    -0.827693511281    -1.464985634121
C     -5.289472599092    -0.310839175225    -0.948080189249
C     -5.255434372179     0.658404164591     0.033961648463
C     -4.032478925811     1.092048906737     0.478306103917
C     -2.867062372430     0.527667664608    -0.091544055000
H     -4.143508171514    -1.588430209482    -2.236096444993
H     -6.234195902024    -0.669357214041    -1.321286129275
H     -6.174664294179     1.070940069483     0.440860392871
H     -3.929772043209     1.851748769427     1.225104277851
O     -1.704476034524     1.020068609423     0.371232352829
H     -1.332276965389     0.861996787252     1.703801192327

