# STO-3G

title

0 1
C      1.199254432322     2.718114889428     0.270768049208
C      0.581957189986     3.693110559950     1.102345984208
C     -0.324919156194     4.608216545524     0.557190106496
C     -0.627630504579     4.565865252677    -0.824481248014
C     -0.033663403483     3.602422920719    -1.654861955546
C      0.888095603583     2.681302715979    -1.115763262686
H      2.042749223881     2.146397728317     0.653546157804
H      0.814372928489     3.721812783600     2.163707010647
H     -0.798178363899     5.350506432691     1.195454579351
H     -1.327416937492     5.286454556418    -1.242414785928
H     -0.272533411241     3.568591811387    -2.714340031452
H      1.382674307124     1.951155737712    -1.747905494449
C      2.086199227922     0.538125096355     3.180026895653
H      1.470579413322    -0.057665486336     3.850506458258
H      1.854165602892     1.599495037514     3.162887038660
C      3.032998394786     0.003882229272     2.369990699158
H      3.558475965204     0.661382476535     1.698294195725
C      3.348030390330    -1.448496187952     2.309832899536
O      2.712099760366    -2.233226405242     3.059265845050
O      4.299223114213    -2.003656935426     1.430006853961
C      4.976217013658    -1.143073967665     0.503903392696
H      5.656166548342    -1.757733791995    -0.125549121296
H      4.257292637770    -0.645961284653    -0.185505168406
H      5.598569132325    -0.390861313324     1.037034076505
Pd     0.293462574232     0.526198158984     0.622714326899
C      1.580329036230    -1.476823382561    -0.972251919653
O      1.634281083876    -0.155462659511    -0.705232360457
O      2.350393639462    -2.046102587650    -1.767623123267
C      0.452175127445    -2.252332286096    -0.213226961970
H      0.853596219826    -3.245962483145     0.026950003298
C     -0.775456228737    -2.408557153556    -1.085828327659
H     -1.550900032798    -2.992529129839    -0.550518396062
H     -1.190197332479    -1.407317836709    -1.328364653088
H     -0.511946254109    -2.935884382509    -2.026718112762
N      0.043891754716    -1.475541424231     0.972221758881
C     -0.339772246010    -1.932125972918     2.132277094746
O     -0.750170506901    -1.155291979385     3.121162249694
C     -0.340818665582    -3.376662379291     2.425481270552
H     -0.994969656819    -3.889186629489     1.702447655935
H      0.699976673505    -3.739980849036     2.364594342700
H     -0.716201373938    -3.539927704947     3.452598962909
N     -2.429177291378     1.829983436768     0.572285783804
C     -3.626585280694     2.409027892213     0.251579917565
C     -4.516390593161     2.760274039770     1.252717366154
C     -4.202965908548     2.534850390584     2.577838383216
C     -2.993035007484     1.960071729241     2.871528147795
C     -2.126018034014     1.625726848432     1.804822989637
H     -3.875990141769     2.587461016372    -0.787725535871
H     -5.457463561009     3.213506445775     0.989589131742
H     -4.895656380258     2.810278968124     3.368458858614
H     -2.677329907805     1.768095197219     3.876149367088
O     -0.947675329952     1.092302960802     2.168264285125
H     -0.868594432889    -0.132186761714     2.850423491904

