# STO-3G

title

0 1
C      0.218269598574     3.002337296623     0.592574223885
C      1.572877192773     3.440783293893     0.544104781990
C      2.216520984766     3.574885784340    -0.687133882423
C      1.524123043265     3.286333825253    -1.894218239261
C      0.189206948422     2.878978113631    -1.862961853681
C     -0.486896291999     2.737370453460    -0.620115019339
H     -0.324643707985     3.005466009075     1.533833363043
H      2.089091581099     3.691629652268     1.467414877335
H      3.250969519250     3.906642490562    -0.728755100171
H      2.039999697246     3.389230455524    -2.845560497011
H     -0.345131715530     2.674187722988    -2.786970886351
H     -1.556551594648     2.538286976143    -0.562762016026
C      1.275396936405     0.830119594646     3.438334364601
H      0.874548833025     0.098389020731     4.136278845820
H      0.712322079404     1.756444406005     3.363665119121
C      2.343753415269     0.590498895477     2.639099036775
H      2.624340030393     1.348116703033     1.930276831641
C      3.100445072077    -0.688826465762     2.622893060816
O      2.676347691332    -1.646596447947     3.319361848534
O      4.243485939666    -0.906538563344     1.826979561843
C      4.748280569697     0.171576712780     1.026292037562
H      5.651966312983    -0.178374844353     0.481374466703
H      4.009791852201     0.485334858673     0.255334750612
H      5.046231923447     1.036307499179     1.659541150310
Pd    -0.035009427564     0.607569333051     0.480296260322
C      1.864334955713    -0.964425541887    -0.975751724392
O      1.553375275497     0.317330999097    -0.687852426392
O      2.837443233078    -1.284951532186    -1.683540308916
C      0.898978486499    -2.029076508305    -0.361695155929
H      1.514736041520    -2.895232245995    -0.084348757044
C     -0.139780720751    -2.462563251170    -1.375098182062
H     -0.801391502163    -3.236342947527    -0.936750317272
H     -0.758966909473    -1.589880737866    -1.669996992408
H      0.356918896265    -2.880950845483    -2.275779061842
N      0.176695439844    -1.424301080206     0.774501519363
C     -0.217136009506    -2.017543657183     1.868716855583
O     -0.919487606983    -1.413239519137     2.808983840981
C      0.113225161354    -3.428809332150     2.138857671509
H     -0.299077429898    -4.056289599403     1.333052329511
H      1.211844613172    -3.517474929811     2.205164005844
H     -0.326542850912    -3.727035539290     3.108536528196
N     -3.150572435259     1.980049592445     0.823901644625
C     -4.413095977108     2.508441760016     0.821310421189
C     -5.245215782087     2.319422411338     1.909563567966
C     -4.811751800542     1.602127470318     3.004181435331
C     -3.541760179365     1.085997239811     2.981884242802
C     -2.733501745227     1.307216458346     1.839000789949
H     -4.757391881825     3.074442450277    -0.036313920770
H     -6.237331921877     2.739499933785     1.897360698190
H     -5.459591598278     1.452354460520     3.863815658123
H     -3.145359754123     0.526647244636     3.804763508442
O     -1.506815085610     0.776625512486     1.922538410444
H     -1.226946342361    -0.420128158589     2.552371802042

