# STO-3G

title

0 1
C      1.491925736109     1.695013525760    -0.047219485461
C      1.270094633129     2.720442883541     0.912851855712
C      0.657229211034     3.919468695970     0.530995469461
C      0.258710741884     4.112465516628    -0.812372301241
C      0.463287526915     3.104309514717    -1.769451312134
C      1.087878968733     1.898006863069    -1.394977030570
H      2.142317965262     0.859733271412     0.210140174712
H      1.575430630901     2.566716924750     1.944907419167
H      0.487569918845     4.700593265166     1.268236067330
H     -0.209432224309     5.050480952195    -1.103221301439
H      0.151773351214     3.254372093812    -2.799519401758
H      1.281139866337     1.117118466101    -2.123495462188
C      1.900000576089    -0.750340377804     2.720563423027
H      1.364920937386    -0.058682040394     3.367863535513
H      1.337372578456    -1.623566861150     2.407420253352
C      3.166719253089    -0.552781322595     2.288084082596
H      3.615400197177    -1.260198720763     1.604129962160
C      4.014852025462     0.593104171108     2.657998835613
O      3.574564614866     1.480299976496     3.438836009007
O      5.300302506033     0.686717171719     2.097100452013
C      6.048179621781     1.862639721116     2.437286815646
H      7.039356181882     1.826369165111     1.936067750123
H      5.518724391150     2.780440374771     2.093406928329
H      6.215477085199     1.921527907142     3.536746946505
Pd     0.031543135764    -0.157960642589     0.298468735457
C      0.480767862356    -2.283668349325    -1.560821743883
O      0.961187749887    -1.068288246705    -1.228220781463
O      0.967246687647    -3.006164126274    -2.449462146520
C     -0.788900326930    -2.721670626919    -0.756063662624
H     -0.743469260840    -3.813814326956    -0.654493124822
C     -2.055027635721    -2.343129613417    -1.495117171727
H     -2.943875440419    -2.689763560100    -0.930337262379
H     -2.109911054605    -1.238477923776    -1.600018189918
H     -2.063379980820    -2.807917014565    -2.503503292108
N     -0.812945326390    -2.006222032194     0.533184482760
C     -1.237374111721    -2.437099541912     1.686895259870
O     -1.268553343671    -1.694603476047     2.779449376373
C     -1.683300235774    -3.831055364925     1.860344176200
H     -2.530434259103    -4.018140663303     1.179498279080
H     -0.832504133051    -4.498375180295     1.642087367088
H     -2.010303461004    -3.983198259634     2.906283176698
N     -2.168729024510     1.883425396748     0.643786843621
C     -3.139906541418     2.836313559961     0.500409655120
C     -3.767157421433     3.359550985212     1.618566926894
C     -3.413280172503     2.933008490482     2.882707735889
C     -2.431841526582     1.982135419627     2.997637446202
C     -1.825757966788     1.489610030739     1.818183701997
H     -3.419107736688     3.174271660420    -0.490558687461
H     -4.530936397692     4.108911241372     1.495158591222
H     -3.895909556559     3.345043207524     3.764766855808
H     -2.090239028258     1.621467758149     3.945819689070
O     -0.850706252766     0.584343348458     2.008617403327
H     -1.091912907470    -0.652598767291     2.599306660877

