# STO-3G

title

0 1
C      0.051746719544     2.600188600959    -0.333445998760
C      1.045926587631     2.631704522630    -1.346739000673
C      2.231625107733     3.357499226093    -1.154137693368
C      2.428192075324     4.074712292311     0.044946293576
C      1.442454726446     4.069199935276     1.055248051814
C      0.258078857736     3.339179394042     0.863252230565
H     -0.968783214727     2.234246566805    -0.544007743352
H      0.895831461109     2.070131403578    -2.263594141781
H      2.996668046298     3.363409562825    -1.925448154313
H      3.345049102258     4.642254036479     0.190605549310
H      1.595794353476     4.633237584070     1.971744553631
H     -0.522602747349     3.339528377559     1.620395780972
C      0.986257482747     0.838240165912     3.404832282133
H      0.630863260277     0.066654102573     4.084265558410
H      0.339691324397     1.705007798675     3.306083471235
C      2.103644712263     0.709900241408     2.647949459401
H      2.343264862382     1.505185198441     1.964098224594
C      2.980609884974    -0.490295874506     2.660035676532
O      2.612959147813    -1.495700860678     3.321944029611
O      4.197480141820    -0.571550978980     1.953419597211
C      4.595507034858     0.533891592694     1.130368329394
H      5.565171741773     0.289070943229     0.645226835618
H      3.860958584866     0.714509037228     0.313759033830
H      4.741915432294     1.454588521269     1.737256025286
Pd    -0.036980543624     0.368477297986     0.406351962697
C      1.911997167886    -1.396528966460    -0.735058134784
O      1.609945035311    -0.086373625744    -0.631024510070
O      2.909039820206    -1.819848231570    -1.348847362174
C      0.894993083163    -2.365129116395    -0.047221716121
H      1.484243654073    -3.174634229223     0.404234845217
C     -0.057754772348    -2.953032810591    -1.067770928741
H     -0.754066057017    -3.662683154145    -0.578084516354
H     -0.649944129615    -2.139568381851    -1.536102243404
H      0.510825730023    -3.492427032668    -1.854492820481
N      0.081061807907    -1.612766045466     0.927816665183
C     -0.421832376809    -2.060211003596     2.045989047895
O     -1.214602163907    -1.347368620736     2.826949410230
C     -0.115469959533    -3.415540461241     2.538622008638
H     -0.440665142123    -4.154914475754     1.790045063727
H      0.972125427915    -3.473072559676     2.723553658490
H     -0.649517537116    -3.588676755994     3.491147537256
N     -2.956478181033     1.783801952656     0.053024918066
C     -4.165339936239     2.310874674294    -0.312297426865
C     -5.231083988846     2.272407419986     0.568857793386
C     -5.085366220715     1.708366405062     1.819097535697
C     -3.862412698673     1.190410101760     2.160722757307
C     -2.808003444632     1.254293775445     1.218366470467
H     -4.283983231142     2.756335644758    -1.293090630240
H     -6.179058862803     2.689707267443     0.271878637372
H     -5.918210946107     1.678169903325     2.516646130341
H     -3.681424789891     0.746600978099     3.118391516915
O     -1.647118833254     0.741937627949     1.641426291171
H     -1.484278808871    -0.396810892273     2.430934241850

