# STO-3G

title

0 1
C      0.323669673471     2.798530816868    -0.208605994785
C      1.707499430322     2.893729710918    -0.500215289860
C      2.480766253236     3.901633667695     0.104444404478
C      1.877097018481     4.825395348374     0.980427760965
C      0.495910963134     4.742663854854     1.264184737730
C     -0.277384028759     3.732492322788     0.672810718726
H     -0.353148326248     2.170011043752    -0.811157246849
H      2.169300479777     2.166932821477    -1.159358824425
H      3.546834259472     3.959395815258    -0.099340143800
H      2.479677753967     5.603566455211     1.444065845494
H      0.034523713104     5.459862435610     1.938242849157
H     -1.341047766422     3.658338492045     0.873117053468
C      1.314153550391     1.545038018437     3.080214569922
H      1.800606291304     2.458175957180     2.750300451278
H      0.309657615530     1.651011082238     3.481602642225
C      1.872606200360     0.321010529125     2.931943165681
H      1.317709500540    -0.555200860561     3.235745151433
C      3.180426712951     0.055303374482     2.311838112201
O      3.978537244516     1.003288612396     2.079935055605
O      3.526898523662    -1.280326636176     2.034772150568
C      4.741507488184    -1.462469876077     1.292596406511
H      4.901274205639    -2.544754744148     1.100811196494
H      4.683385196943    -0.945293448979     0.306457474534
H      5.616206705449    -1.072718575472     1.860730521479
Pd     0.086844410747     0.479544469311     0.441186417533
C      1.842372061888    -1.349167049690    -0.898031672787
O      1.655580674806    -0.029012771381    -0.695416434015
O      2.799455402166    -1.823318614954    -1.537344656587
C      0.732831371434    -2.264440567110    -0.286978017862
H      1.227503780728    -3.186955885932     0.044001367214
C     -0.315636481692    -2.607554644998    -1.324368106217
H     -1.079234641224    -3.281793855404    -0.887168063734
H     -0.816508115845    -1.678508741024    -1.669243136891
H      0.157064701114    -3.112595006073    -2.193025096567
N      0.047686573881    -1.538535037824     0.799784952890
C     -0.454822117283    -2.033084403673     1.894764958192
O     -1.105872859067    -1.310958006077     2.790894430695
C     -0.270371697981    -3.452377478679     2.246148483544
H     -0.715842304398    -4.075912425268     1.453618348343
H      0.811903776448    -3.642364825382     2.352388300516
H     -0.774699831287    -3.660428736615     3.208429838230
N     -2.769319180073     1.604885836485    -0.062723673296
C     -3.979479472454     2.012650572991    -0.555439317812
C     -5.093189102346     2.021370788102     0.265732003375
C     -4.994896499259     1.624764538016     1.583500092806
C     -3.770716358389     1.221317454030     2.051759758693
C     -2.667432817061     1.231544572637     1.165837501534
H     -4.061154259126     2.327863816247    -1.589112038986
H     -6.040952677292     2.345828229438    -0.131240025859
H     -5.865196034012     1.634832143123     2.234302628458
H     -3.621707988186     0.912437246986     3.066145189145
O     -1.504967240076     0.836724221629     1.704509032851
H     -1.352715280898    -0.326643744319     2.453322137042

