# STO-3G

title

0 1
C     -1.994871583623    -2.743939415014    -0.946767066800
C     -1.709204026040    -3.982016957550    -0.301686807240
C     -2.313454628234    -4.298938400122     0.914787905331
C     -3.218044295592    -3.388032519574     1.522368405741
C     -3.522363074667    -2.169544189884     0.906055843147
C     -2.919560329438    -1.842310323005    -0.336692287828
H     -1.662229840776    -2.533714504809    -1.966616488276
H     -1.012348584293    -4.676537502825    -0.763722397586
H     -2.085210748886    -5.238770823839     1.410256093397
H     -3.674183018696    -3.642347615663     2.476187184926
H     -4.223329815716    -1.477825680897     1.365950830925
H     -3.232145921162    -0.951384584694    -0.876698475237
C      1.583058850826    -2.191643589475    -1.940553300886
H      2.109716874313    -2.473092475259    -1.031365444763
H      0.623794313060    -2.666299906621    -2.115974062328
C      2.051533110084    -1.280123762200    -2.824372541453
H      1.453111829321    -1.022848603163    -3.688270878598
C      3.309542900991    -0.529228802561    -2.687588093265
O      3.985382901883    -0.613829165484    -1.624603269654
O      3.691944988412     0.338098023484    -3.726326858139
C      4.902415725141     1.077299256180    -3.513406287424
H      5.101600021304     1.718992114828    -4.398555745760
H      4.810790425549     1.735712651450    -2.620355605842
H      5.768030400451     0.389197830095    -3.380622592303
Pd    -0.581006421692    -1.001964945793    -0.182394663587
C      0.762093208076    -1.562267347338     2.288064187158
O     -0.131127553264    -2.085810817474     1.424700691715
O      1.213036680912    -2.181876958855     3.269829182298
C      1.155143741393    -0.081587356820     2.002458475075
H      2.206129179351     0.033017031332     2.299476319016
C      0.300656128432     0.859484382704     2.828413006562
H      0.594431253452     1.911653752184     2.643490305032
H     -0.766001741842     0.732781880615     2.547915611512
H      0.422597519599     0.636262155643     3.909396583790
N      0.904716274518     0.233073742362     0.581197373725
C      1.547251670182     1.101738249643    -0.147766730376
O      1.188880132238     1.422002088173    -1.375998200351
C      2.763897144955     1.774799606880     0.344087140515
H      2.521473968446     2.341557471116     1.256658200094
H      3.526499569293     0.998564896098     0.534014340655
H      3.139186622544     2.464758276952    -0.433879521719
N     -1.418990336894    -1.300963036782    -3.556399802573
C     -1.759604344992    -1.511461676077    -4.864936871909
C     -1.861821288493    -0.440778714653    -5.733172732736
C     -1.630619960360     0.843401522647    -5.288888179984
C     -1.300866068440     1.025630333343    -3.970828528274
C     -1.212043991277    -0.105350744633    -3.121986150099
H     -1.938473276912    -2.520026037397    -5.218797199720
H     -2.125472185530    -0.616826662845    -6.762974039867
H     -1.710116344748     1.689724550105    -5.965987034106
H     -1.117052644671     1.998870894010    -3.562924422041
O     -0.873557671481     0.193967623386    -1.860526271008
H      0.279906024263     0.955816312660    -1.686386509969

