# STO-3G

title

0 1
C      1.280044932068     2.680382487796     0.010639925572
C      1.188236218026     3.225744085895     1.322854042186
C      0.206050436499     4.174344950962     1.621374155736
C     -0.698412284428     4.600558490271     0.616747996982
C     -0.623342773306     4.071027468638    -0.678594575076
C      0.370373699935     3.116880109490    -0.992792174227
H      2.157760368621     2.096093584514    -0.259712550873
H      1.900453728933     2.912921809668     2.080166710716
H      0.141254231015     4.595525845417     2.621845409719
H     -1.450081841189     5.349740354909     0.855914751078
H     -1.314971678077     4.399973020065    -1.449185081879
H      0.480761096297     2.740596296868    -2.004740312235
C      3.514414345547    -0.270338446085     0.640991331069
H      4.542569402046    -0.564494282802     0.445153255937
H      2.864107373192    -0.204829049390    -0.227965219760
C      3.037359729756    -0.004391129336     1.881798766620
H      2.001152783887     0.274247040835     1.971137578358
C      3.850201516358    -0.080158161276     3.124006631750
O      5.076693066948    -0.334553677708     3.026247064860
O      3.315280812741     0.138928123819     4.411544917697
C      1.898547335088     0.309334646268     4.552005813387
H      1.656175688900     0.421683290238     5.631023993970
H      1.550355815930     1.232032276690     4.036347175713
H      1.351731194721    -0.583831603657     4.174649460043
Pd     0.299014562310     0.504864208034    -0.194134541012
C      0.827241134432    -0.699841116584    -2.738217600585
O      1.004169130847     0.458851832504    -2.068533864218
O      1.218460202734    -0.895656301922    -3.902147846441
C      0.049303594968    -1.796278372700    -1.939415309898
H      0.473761771266    -2.764645574683    -2.235214217328
C     -1.424544357668    -1.776193683127    -2.285102920342
H     -1.954673949223    -2.581823024777    -1.737914762858
H     -1.863863450827    -0.799038386495    -1.992303546445
H     -1.564139468630    -1.928533159758    -3.376189511635
N      0.156450319799    -1.517341699836    -0.493737151180
C      0.244001619728    -2.378881859225     0.480292991961
O      0.257236278916    -2.038843557042     1.755878103106
C      0.371483129333    -3.822422631328     0.213487387444
H     -0.511541122267    -4.158139182504    -0.355403147406
H      1.305904754832    -3.989747710546    -0.348888217117
H      0.421744648360    -4.369402947214     1.173916364023
N     -2.142513760046     1.482433722582     1.200554456653
C     -3.342747667519     2.042911502195     1.543084378722
C     -3.799709308375     1.954876743250     2.847074718924
C     -3.050789623446     1.308177828123     3.809074872731
C     -1.847487489528     0.762277705754     3.439565264391
C     -1.433980041300     0.890107196047     2.092621816837
H     -3.933916028585     2.550509869111     0.789990125940
H     -4.746994795921     2.397705559097     3.106799060256
H     -3.404549005388     1.236632622348     4.834132158069
H     -1.215130045982     0.253916016058     4.135260550175
O     -0.230854253672     0.360293589829     1.806173126017
H      0.042220169140    -1.012927938201     1.919640176772

