# STO-3G

title

0 1
C     -0.521931448878    -1.278753671108     2.436200820827
C      0.804027101620    -0.908912065337     2.818458361857
C      1.022667089413     0.256033672468     3.598728020730
C     -0.067257258198     1.034529751065     4.000018814949
C     -1.390977609643     0.665080964853     3.640789667112
C     -1.617124789724    -0.474978835393     2.869642262183
H     -0.683206832189    -2.249478107341     1.963417934342
H      1.632311762632    -1.575049070963     2.588026767722
H      2.034201810160     0.535982282982     3.880229552480
H      0.096511692431     1.933649437104     4.588799731878
H     -2.225503905451     1.282061733574     3.963213856354
H     -2.629715825687    -0.763418811109     2.598543803611
C     -1.593597526032    -2.181680109668    -1.885603699830
H     -1.856172784652    -1.704746288385    -2.827293788988
H     -0.635908941496    -2.696162166022    -1.863237409651
C     -2.364725326917    -2.131143987791    -0.774649679694
H     -2.009125299974    -2.620171485480     0.120728898869
C     -3.657311665987    -1.435524022873    -0.671426599399
O     -4.108937981984    -0.793285634192    -1.658867785944
O     -4.326364993276    -1.440103590768     0.564970628494
C     -5.523657733479    -0.653174218560     0.633472692682
H     -5.959737817472    -0.734080785865     1.652452775716
H     -5.302274486368     0.420493510415     0.435618844896
H     -6.279640239872    -1.016901357353    -0.098952821966
Pd     0.354832268907    -0.475352186545     0.405629072935
C     -0.169443251938     2.271621396085    -0.217180639246
O     -0.222833354898     1.383361573066     0.796833587638
O     -0.336509156192     3.496153056639    -0.066395165264
C      0.053510622768     1.639670285068    -1.624251694135
H      0.637873166626     2.360329335846    -2.210996014289
C     -1.277071926286     1.408475563456    -2.310755525698
H     -1.132792162315     0.931983302730    -3.299679692603
H     -1.906146463974     0.744059075097    -1.685174391105
H     -1.807341908025     2.373912810030    -2.450451378420
N      0.719907537654     0.328817421976    -1.474743498938
C      1.523031630205    -0.244235080593    -2.327794835315
O      2.037117374519    -1.445618914482    -2.153951210774
C      1.944311577877     0.437810983675    -3.566874737847
H      1.052556516250     0.671486863849    -4.170134530338
H      2.496495498219     1.351415526358    -3.289280527846
H      2.611961235442    -0.229416969801    -4.143782607076
N     -0.186119990415    -3.934314962394     0.889352956138
C     -0.466688290292    -5.255795589349     1.106697763030
C      0.347729595805    -6.233108495159     0.566009205838
C      1.448957411787    -5.887054381303    -0.187111105122
C      1.709395327931    -4.555450588113    -0.385510798554
C      0.842624063961    -3.594101507543     0.191566676039
H     -1.332084826731    -5.531847407843     1.697781028263
H      0.117123391262    -7.271024066749     0.741037391534
H      2.095696517882    -6.650963706993    -0.610552644775
H      2.557900199735    -4.226512060967    -0.950366975394
O      1.183448689155    -2.325858086753    -0.064156451635
H      1.731909408182    -1.937445373088    -1.244948098916

