# STO-3G

title

0 1
C      1.335871578912     1.728633327503    -1.345800288227
C      0.696715747838     1.931931618297    -2.602262809410
C     -0.095512928643     3.059774728701    -2.815049355201
C     -0.273054367729     4.015530061030    -1.779084222188
C      0.354158274136     3.846027396897    -0.540716066129
C      1.171170030279     2.705720295645    -0.317863552405
H      2.080287182630     0.948093350213    -1.187108069700
H      0.831312450988     1.201684499855    -3.396155148450
H     -0.589697113830     3.208173499939    -3.771465163543
H     -0.901794885847     4.885225357015    -1.954688589668
H      0.232446622816     4.585777301695     0.246338287311
H      1.762117782600     2.623271428770     0.591319491131
C      0.884114252404    -1.710338540621    -1.390025624122
H      1.934278217033    -1.579164288465    -1.140650126154
H      0.462198491996    -1.001636955458    -2.095722620247
C      0.100542311846    -2.655073944256    -0.820748613009
H     -0.954966545739    -2.689386639984    -1.054831857141
C      0.553560405258    -3.638953160367     0.175868037305
O      1.771218611803    -3.704468857273     0.497086638435
O     -0.410271682840    -4.462501365721     0.787484604577
C      0.077459437816    -5.325305400437     1.824316722566
H     -0.763696973476    -5.925016484685     2.232823783281
H      0.844594225079    -6.027933258395     1.426132814826
H      0.519370836812    -4.729411221109     2.655726619245
Pd    -0.090199513084     0.646493563432     0.235589208300
C     -2.871374925460     0.715993723586    -0.458377812294
O     -1.657779288580     1.092343028071    -0.910200989728
O     -3.918401817598     0.830591308197    -1.122563175449
C     -2.877867471566     0.157044809672     0.996314098255
H     -3.680593812800    -0.590368148135     1.050091264751
C     -3.163824040133     1.264122970139     1.990932009472
H     -3.187056488398     0.858788554023     3.022140831583
H     -2.366285360152     2.034040332340     1.928090922100
H     -4.143979713230     1.735303459876     1.766327182015
N     -1.541905792777    -0.383313492719     1.314840227497
C     -1.264004343116    -1.357432283275     2.134611238476
O     -0.035797808565    -1.696758186046     2.467191685398
C     -2.326334527285    -2.201672533757     2.712213903713
H     -3.007071961965    -1.569233438050     3.304364957570
H     -2.851469502209    -2.704846935948     1.882312849094
H     -1.867905970288    -2.967399541563     3.365399518041
N      3.379407571733     0.106597210992     0.223365875851
C      4.735588160172    -0.059132164901     0.146459694487
C      5.439100151255    -0.529756091349     1.239420901014
C      4.782380869580    -0.839587680798     2.411036504978
C      3.425155525027    -0.655297114562     2.464818008511
C      2.752771590129    -0.172862767152     1.314124558825
H      5.254661535626     0.178347592507    -0.774662827176
H      6.505447635918    -0.662821564345     1.166267808024
H      5.327970402574    -1.216763789933     3.271690719609
H      2.860327334508    -0.875494438096     3.346828921036
O      1.430357946913    -0.029597344580     1.478372848243
H      0.715402212923    -1.021068391919     2.090757163926

