# STO-3G

title

0 1
C      0.330808065176    -2.839543642120     1.123628006043
C      1.692670760714    -3.163771550973     0.859673367218
C      2.698153146239    -2.691199801769     1.702983126418
C      2.370882919743    -1.895831118310     2.834318007166
C      1.039161677091    -1.591218152576     3.121953192903
C     -0.001373783064    -2.065138241443     2.276870382282
H     -0.463254599702    -3.295033099646     0.537586772989
H      1.940832418861    -3.792908867843     0.009144864907
H      3.738786755021    -2.927745887196     1.495664302504
H      3.166426753933    -1.527319076100     3.477044982145
H      0.787083777676    -0.997029998329     3.996326061486
H     -1.053494160424    -1.944875810987     2.533569660584
C     -0.174844199186    -2.076730707091    -2.601651385197
H     -0.865009067139    -1.416107632433    -3.118412933607
H     -0.625466822983    -2.956215559358    -2.148504089043
C      1.143987791263    -1.810845160158    -2.460909852337
H      1.775461660514    -2.485541840128    -1.903538844489
C      1.827423961370    -0.606970423656    -2.962171764283
O      1.163264433880     0.324321484250    -3.498730547310
O      3.225359642013    -0.532707572692    -2.844395513179
C      3.823354567412     0.717373975694    -3.213352097829
H      4.922664894244     0.655576196400    -3.063607063485
H      3.627753534985     0.951378765046    -4.283897491561
H      3.439392118309     1.542975962888    -2.572408940817
Pd    -0.336008397159    -0.690332240450     0.285534770948
C      1.627522230320     1.377187602189     0.025838704010
O      1.481061781550     0.112736761745     0.470352044109
O      2.715604044394     1.984271994415     0.017477343550
C      0.309555200014     2.055757001598    -0.467038685942
H      0.586147907903     2.718119538102    -1.297980405626
C     -0.317264084361     2.881389713164     0.636971613063
H     -1.237253848198     3.376917253962     0.266987903167
H     -0.585201638752     2.220842981587     1.487916487744
H      0.396289202449     3.657243902887     0.985885271936
N     -0.664615652577     1.012242968541    -0.836786633713
C     -1.537737050105     1.057705695621    -1.804497311970
O     -2.414585691366     0.097286755287    -2.038128002936
C     -1.600849119043     2.202234058737    -2.731987541334
H     -1.782170323578     3.122300386850    -2.153724191601
H     -0.644467402534     2.246347308675    -3.282367356964
H     -2.424647258038     2.044820991780    -3.452357295410
N     -3.075824914369    -2.122590259458     1.818720515772
C     -4.131615368015    -2.623185146153     2.531018251432
C     -5.303882248072    -2.965873758770     1.882452173952
C     -5.417675100254    -2.810857350832     0.517420286591
C     -4.343382009911    -2.310420269373    -0.172135593550
C     -3.167733484971    -1.972006558167     0.544120813522
H     -4.045536201273    -2.747999358905     3.604076356798
H     -6.129518657703    -3.358497976722     2.452544488899
H     -6.334880276310    -3.081378795007     0.001098539114
H     -4.368354030930    -2.175562749266    -1.234150191105
O     -2.173710510864    -1.505452380838    -0.223695489271
H     -2.397311651059    -0.689976775078    -1.305329421536

