# STO-3G

title

0 1
C      0.923926611396    -1.902596551596     0.894445467955
C      2.334835718138    -1.777246395273     0.742405454799
C      3.127714586820    -1.364382199293     1.813578603455
C      2.533482039802    -1.061178714159     3.066641010112
C      1.150984035440    -1.186572156498     3.246930128319
C      0.339894077752    -1.618114006159     2.166198042728
H      0.294302123869    -2.366871171464     0.130622397426
H      2.794300182797    -2.005385662773    -0.215740181667
H      4.202451205009    -1.261453244190     1.689808038020
H      3.160533088575    -0.729516100337     3.891079566733
H      0.697858264384    -0.968974292395     4.210697420021
H     -0.717049872956    -1.821016340976     2.323499436859
C     -0.558431653657    -0.305370144618    -2.762055196124
H     -1.471905687902    -0.748717252323    -3.152971023188
H     -0.620746924466     0.743509898210    -2.491029277987
C      0.580581057418    -1.006150491730    -2.563250509567
H      1.435030362951    -0.518941821511    -2.112297165134
C      0.756390491845    -2.432952510668    -2.882671320035
O     -0.131324645934    -3.055595301544    -3.528697958348
O      1.975427101348    -3.047499186005    -2.544642439595
C      2.079876420024    -4.444468600412    -2.850399226054
H      3.078090388416    -4.816140926997    -2.533808191255
H      1.303230018496    -5.026037038445    -2.304518323026
H      1.974212362465    -4.618896581967    -3.945245430651
Pd    -0.208643664607     0.129493211077     0.450605714872
C      1.461086043683     2.458265233900     0.500556679547
O      1.520245381849     1.113273020869     0.580555155126
O      2.465928653934     3.192078783230     0.461428975081
C      0.015958201139     3.044434417407     0.505272364324
H      0.038276684536     3.965258817556    -0.092244713584
C     -0.417858585827     3.378816716392     1.918284736123
H     -1.439018030587     3.809312346272     1.916855707999
H     -0.420750814954     2.454915751857     2.534271255660
H      0.282514829189     4.113768968867     2.368332136758
N     -0.920214478584     2.025819855314    -0.009435012017
C     -2.037774090866     2.232097648462    -0.647699807143
O     -2.881624882451     1.268818677891    -0.959386679105
C     -2.421033586348     3.579547611361    -1.108436017687
H     -2.513175992247     4.243519591839    -0.233472626828
H     -1.649136396249     3.939058199236    -1.809865185025
H     -3.394335419816     3.524010173908    -1.631593172562
N     -1.538006008671    -2.909994264003    -0.551485283987
C     -1.960513017125    -4.123436679856    -1.023498683959
C     -3.308441637774    -4.356100025527    -1.226444280781
C     -4.233966567370    -3.368813975044    -0.967055585119
C     -3.783264088451    -2.160295528965    -0.501945125473
C     -2.390912999105    -1.977322041313    -0.308957173659
H     -1.235173837643    -4.900290221765    -1.234277859471
H     -3.628814920850    -5.313646404860    -1.601382428436
H     -5.294135986365    -3.544230541320    -1.128286211293
H     -4.453779300000    -1.356656469833    -0.276976471012
O     -2.061468087798    -0.752802543254     0.133409199288
H     -2.623647059532     0.319830000834    -0.520289284393

