# STO-3G

title

0 1
C      1.439422008923     2.626176516399     0.021411355841
C      1.130652976741     3.714649892371     0.886120039425
C      0.062390900293     4.563500679355     0.592350514660
C     -0.720117795221     4.348798393622    -0.572446619020
C     -0.434935740827     3.282561184409    -1.432358833125
C      0.653524470404     2.415884360021    -1.149785157544
H      2.351992339728     2.057744557797     0.166630488116
H      1.724830380007     3.878868711111     1.779911780316
H     -0.184245383603     5.377841436022     1.265477096144
H     -1.550926593653     5.014469530446    -0.791989645001
H     -1.030912865198     3.120010201951    -2.326315485877
H      0.947273784528     1.650951726944    -1.860937459555
C      2.155778363294     0.698596443936     3.126068125789
H      1.575951005875     0.178583427623     3.885569140795
H      1.928684322882     1.754841875890     3.022200178197
C      3.041800720176     0.073790219338     2.311800154037
H      3.537828699840     0.658664579346     1.555894220164
C      3.327227888768    -1.385040503184     2.360928845001
O      2.687537471373    -2.095393089630     3.178140626090
O      4.231242584604    -2.031227346390     1.493699261005
C      4.899182648644    -1.261998971478     0.484521109483
H      5.549175063486    -1.939732223587    -0.111008679971
H      4.170788404788    -0.806824626255    -0.223606847917
H      5.550982609402    -0.483508282042     0.939237028591
Pd     0.322200296249     0.574997700033     0.565597441953
C      1.425900911411    -1.682655725503    -0.819803886139
O      1.546279652941    -0.340262152675    -0.731669536353
O      2.138974112854    -2.383420148762    -1.559913763756
C      0.296309563448    -2.302663409638     0.069561889406
H      0.675172556444    -3.266584579985     0.434378580083
C     -0.958156794700    -2.540053172091    -0.745391270827
H     -1.747237941177    -2.989985399178    -0.109884841319
H     -1.329698075706    -1.576428611648    -1.150099596039
H     -0.739365523555    -3.229677952548    -1.587984760735
N     -0.053633052508    -1.360565735556     1.149680463196
C     -0.415211851975    -1.647249790413     2.371942899185
O     -0.742229736204    -0.732517988203     3.264262311425
C     -0.487550580065    -3.042025090918     2.843970790622
H     -1.193024600687    -3.602139164005     2.210477884269
H      0.528263098211    -3.472719183565     2.804173191637
H     -0.836552691062    -3.053441007180     3.893386254737
N     -2.328833305614     3.101076297638     2.253680240686
C     -3.566069241485     3.596554882156     1.940369742684
C     -4.413117216854     2.878729909468     1.112797561720
C     -4.024811713381     1.656101025002     0.607120832473
C     -2.785101207736     1.176801493883     0.944288153978
C     -1.963132466344     1.962418129904     1.793328867088
H     -3.875014212345     4.557518780006     2.334448034907
H     -5.382592624504     3.281375553700     0.871185335547
H     -4.688587828463     1.083896932285    -0.035253768081
H     -2.433565220045     0.224006808503     0.609605377554
O     -0.755147581245     1.421783368630     2.092376835246
H     -0.768164882375     0.267750966504     2.876173631872

