# STO-3G

title

0 1
C      1.290204759670    -2.147212431827     0.056709603375
C      1.053045323550    -2.371385083331    -1.329905833983
C      2.050535585533    -2.083442144575    -2.265655173200
C      3.302788004220    -1.573123102897    -1.838602409112
C      3.558352484235    -1.356030823249    -0.477680159501
C      2.558409456448    -1.649640887200     0.481255323209
H      0.572462372443    -2.505658364183     0.785851602681
H      0.087676927521    -2.751637936416    -1.647544923838
H      1.865372243682    -2.241716769537    -3.325290494028
H      4.068615192933    -1.345904650584    -2.576579860777
H      4.520923629920    -0.970298686325    -0.153540917147
H      2.765346180219    -1.561609025501     1.543584377788
C     -1.911537368187    -1.920092892740     0.827379565016
H     -1.876117973139    -1.237897295996    -0.021842938216
H     -1.483760657885    -1.554906694358     1.758196757636
C     -2.368891550802    -3.192283282009     0.769942830523
H     -2.317083542348    -3.816520056805     1.652608967022
C     -2.941059642106    -3.844195059262    -0.420489519717
O     -3.061739098284    -3.205949302750    -1.501554918824
O     -3.353036439061    -5.184825109134    -0.316910375460
C     -3.888938885872    -5.771155420809    -1.511405520938
H     -4.175203399409    -6.825440664992    -1.307452263393
H     -4.797773830314    -5.222602026741    -1.847945579267
H     -3.131045119760    -5.768283714707    -2.327468177804
Pd     0.660166214416     0.046552963852     0.676236804096
C      0.057484081663     0.196748054660     3.476099843538
O      0.601915142782    -0.632072988323     2.559819901947
O     -0.019226552485    -0.071202006263     4.688478476226
C     -0.517874814088     1.536415891042     2.905143950226
H     -0.274652772314     2.312446949251     3.643037762668
C     -2.023245978256     1.467767566040     2.746347597016
H     -2.422893813789     2.462468704801     2.466149712590
H     -2.286435029996     0.750873751297     1.942735873235
H     -2.497251627593     1.147331342847     3.698083725555
N      0.055374068348     1.795220605470     1.571971156204
C      0.342368867766     2.947022004736     1.034948080066
O      0.838082703302     3.085642285081    -0.180035108285
C      0.150943161185     4.207376299552     1.776281987325
H      0.441927376779     5.054743141998     1.127986337564
H     -0.913466028717     4.301561851099     2.044521612744
H      0.797205545381     4.195048861607     2.670979600662
N     -1.287430551499    -0.031643856846    -1.832845633066
C     -2.248179889050    -0.206258471110    -2.793519271966
C     -2.094874124816     0.378707890374    -4.038589183880
C     -0.974724943532     1.130498942443    -4.324740406841
C     -0.027415318203     1.284162752808    -3.345806485684
C     -0.235057560141     0.659958354532    -2.092437088221
H     -3.133056843349    -0.790403061947    -2.571978927893
H     -2.856799669539     0.234841497686    -4.786133172927
H     -0.844988818706     1.586155554900    -5.302538569723
H      0.874813106676     1.838359912922    -3.503406988216
O      0.756814960380     0.859421402946    -1.205515362697
H      0.888432893355     2.178296365173    -0.738514543552

