# STO-3G

title

0 1
C     -2.917573624070    -1.318933593772    -2.172021274022
C     -1.711744331070    -1.171427912696    -2.924118710253
C     -1.049919250201    -2.317667078974    -3.442571018476
C     -1.588758347241    -3.586889497113    -3.220368440241
C     -2.796218610477    -3.739513026943    -2.486435731882
C     -3.452328679702    -2.623019091320    -1.967660191824
H     -3.472382041907    -0.416481192936    -1.919048924565
H     -1.375204119066    -0.174932969112    -3.200259637695
H     -0.131990060831    -2.198525477293    -4.011962169269
H     -1.082172766427    -4.467304028828    -3.607445438038
H     -3.201629011271    -4.735174819932    -2.326158811844
H     -4.380147773735    -2.739078455716    -1.413531829731
C     -3.871760700915     0.167809881314     1.008358751510
H     -4.010420783113     0.751761381858     0.101905624041
H     -4.107755483776    -0.891201215036     0.938484900219
C     -3.380123072931     0.695209909921     2.153124300537
H     -3.211298182092     0.068180291485     3.017267153545
C     -2.975513976485     2.099824070480     2.329367442371
O     -3.207756903372     2.948576323462     1.427225131937
O     -2.284357265971     2.452318366868     3.503668461768
C     -1.821495301083     3.808707405816     3.568301089504
H     -1.294843774950     3.975143974738     4.532229890267
H     -1.108510502194     4.020920065150     2.738444766890
H     -2.675532252088     4.521604359100     3.511209891311
Pd    -1.266514995130    -0.770955336991    -0.543029818666
C     -0.166700150205    -3.021086960646     0.838168755641
O     -0.900518543340    -2.694881466977    -0.242957787200
O      0.301676457962    -4.158629989359     1.031515447726
C     -0.000937729591    -1.885497416728     1.890756620281
H      1.009539999243    -2.007836243757     2.300959130058
C     -1.024105925946    -2.054767281105     2.997503572234
H     -0.940809052695    -1.236258378353     3.739619469346
H     -2.042452737583    -2.039941935976     2.558086149503
H     -0.868809239259    -3.025777089264     3.513531372762
N     -0.219834654588    -0.563969699344     1.261795693272
C      0.198216480484     0.602191754951     1.678346267470
O     -0.068771308722     1.734813163400     1.063895243274
C      0.991503039760     0.792180338937     2.911013033758
H      0.418511500715     1.471817870802     3.566848575553
H      1.189469170523    -0.143470680283     3.446888836255
H      1.946738363282     1.268313747805     2.627250432311
N     -3.402319246445     1.697209925796    -1.987948440308
C     -4.206635076970     2.585083849430    -2.648977115367
C     -3.799552976104     3.895102730735    -2.820807180101
C     -2.586699666342     4.319638907928    -2.321677815860
C     -1.795323122213     3.409316960666    -1.670964507496
C     -2.264801423217     2.080963634805    -1.517163631782
H     -5.162529790498     2.256263582741    -3.039239479843
H     -4.442867115980     4.586667260444    -3.338122176719
H     -2.264539579163     5.349908428439    -2.444833323254
H     -0.845822781462     3.679356281071    -1.258672125008
O     -1.417017795748     1.271471055826    -0.871363110543
H     -0.674098410513     1.655437599540     0.165777485297

