# STO-3G

title

0 1
C      0.217814580693    -2.604132121208     1.843502036388
C      1.573717978278    -3.014949012987     1.993800921505
C      2.299396457915    -2.621169056598     3.117978338855
C      1.691430112802    -1.815135377233     4.117920410086
C      0.358779728174    -1.413663521819     3.993173689836
C     -0.397354161533    -1.812201123577     2.858521661391
H     -0.411332312108    -3.018597788429     1.062853495208
H      2.037328552852    -3.638358335020     1.233154394857
H      3.337296154140    -2.923180609189     3.230311142188
H      2.272942997899    -1.510528807365     4.984574171799
H     -0.109479371173    -0.809811418838     4.766051486578
H     -1.468465667193    -1.646944621736     2.787298842664
C      0.416833845619    -2.493987427093    -1.699459754413
H     -0.513296433980    -3.054951103535    -1.781739227345
H      1.027561663517    -2.704600404888    -0.828820409050
C      0.779883115454    -1.535054027359    -2.579531499377
H      1.682846842472    -0.965432687661    -2.404744624125
C     -0.004426106876    -1.129235782297    -3.756945388144
O     -1.079682242982    -1.725783436360    -4.040596079421
O      0.453609291418    -0.041785448248    -4.524185228970
C     -0.394438008893     0.355111033940    -5.610733917927
H      0.064794188606     1.215581602353    -6.142851380527
H     -0.519348393686    -0.477720354123    -6.339788896252
H     -1.394723964262     0.669682671063    -5.234512997929
Pd     0.063058525496    -0.422757131851     0.867058150594
C      2.362220288764     1.250027657067     1.207581862505
O      1.873023997638     0.040205188841     1.551931013742
O      3.507865699856     1.637056964331     1.503983738225
C      1.359007085889     2.157090987594     0.433301814082
H      1.950201219180     2.769283200618    -0.260698481508
C      0.614953756343     3.070012667921     1.386530504467
H     -0.080506940535     3.725713941454     0.825288463767
H      0.027809574566     2.458998086019     2.103799892097
H      1.333648637223     3.702887291710     1.948731812795
N      0.353824017187     1.306042818284    -0.232992294716
C     -0.266372551952     1.549175017820    -1.357099358322
O     -1.226773656549     0.791430615463    -1.832837428438
C      0.119919633446     2.688591281961    -2.210749853417
H     -0.013648439977     3.623489440371    -1.642797299685
H      1.168058059157     2.543679253435    -2.523123349899
H     -0.525054091826     2.704322230174    -3.109208440656
N     -2.830041229552    -2.473886542619     1.037964606346
C     -3.799670973098    -3.438752384538     1.072040769627
C     -4.572905459856    -3.682906687118    -0.047869302518
C     -4.376278191635    -2.957526152963    -1.203832420665
C     -3.406475789174    -1.989167378530    -1.206842881819
C     -2.644037276634    -1.779813193074    -0.030191017287
H     -3.952525598750    -4.015539149583     1.976661778499
H     -5.328545153567    -4.449944273255    -0.013775842451
H     -4.971781236709    -3.151796944337    -2.091940646997
H     -3.194006309966    -1.414352219570    -2.087316517829
O     -1.711910707096    -0.826555965538    -0.130509473230
H     -1.542189425229    -0.009675789880    -1.144943400744

