# STO-3G

title

0 1
C     -2.978441383400    -1.660104059587    -0.434310779399
C     -3.759679597754    -1.038542978558    -1.448517973752
C     -3.602577858887    -1.417712157377    -2.788013714716
C     -2.674048904493    -2.426103304665    -3.134643833389
C     -1.906602798077    -3.064546418660    -2.143803757078
C     -2.064182408664    -2.697714952531    -0.791843533976
H     -3.228786725403    -1.497778891268     0.610093559724
H     -4.468474966505    -0.266251581666    -1.174252437903
H     -4.192417703898    -0.935226687808    -3.562384584922
H     -2.555679578531    -2.711865040492    -4.177579132873
H     -1.201700224734    -3.845705567480    -2.414495869401
H     -1.526975059229    -3.217686409765    -0.005745004387
C     -2.761938041869     1.649890468153     1.411941385399
H     -3.186405069014     1.628268109069     0.409798690035
H     -1.802927363922     2.162476035356     1.480666712450
C     -3.343788602224     1.100770822159     2.505597283965
H     -2.856368851296     1.138678226002     3.469996187489
C     -4.640811715469     0.401724822697     2.506412824963
O     -5.305265317725     0.294950335264     1.440180574322
O     -5.119269022703    -0.123786202558     3.719516229495
C     -6.358535521513    -0.842584186312     3.644623487515
H     -6.630583207323    -1.214047395062     4.655953387830
H     -7.178740403519    -0.181543749974     3.283245754436
H     -6.265042397029    -1.720865743654     2.965737714229
Pd    -1.067165344583    -0.387953245032     0.173441160956
C     -0.036716706556    -1.492997298368     2.620759038589
O     -1.047550371987    -1.620872672603     1.737986990424
O      0.129058503870    -2.263139780807     3.584270244446
C      0.909938403856    -0.275558785317     2.381546150193
H      1.928477095499    -0.639043829711     2.573673876644
C      0.601177588829     0.839911385421     3.359842764595
H      1.279629080651     1.700319771543     3.201777497750
H     -0.440293176562     1.181358285372     3.215945018463
H      0.720741238498     0.476211667895     4.402403311711
N      0.731891704029     0.249084465696     1.012477006091
C      1.636046112305     0.838427862231     0.273841536657
O      1.402266145264     1.300423047514    -0.933600450105
C      3.027532327938     0.999314136606     0.741656655097
H      3.031992693612     1.594119991226     1.668173498824
H      3.460732006100    -0.002723329865     0.897986561572
H      3.613656948785     1.529055596015    -0.032980701564
N     -2.971596542592     1.888187783639    -1.737874202474
C     -3.764985319023     2.757646005172    -2.434977307884
C     -3.244907412401     3.462093426491    -3.505174550093
C     -1.929800800313     3.289510937140    -3.880229111182
C     -1.159124838646     2.409502233206    -3.165075026055
C     -1.745160791647     1.711356720356    -2.078187076235
H     -4.799338767043     2.894190715184    -2.141850544712
H     -3.877594524275     4.144318273477    -4.047939096027
H     -1.515846398470     3.834379047296    -4.724355909966
H     -0.137042722731     2.218996956587    -3.420786100406
O     -0.905886392529     0.868079482938    -1.459225545961
H      0.375280068538     1.160233281493    -1.285319268989

