# STO-3G

title

0 1
C      1.242663587315     2.537636610427     0.342045930074
C      0.660048061113     3.526146115477     1.184852041013
C     -0.207491463478     4.483063333744     0.649124430851
C     -0.506498771551     4.471770785715    -0.735214402827
C      0.051759644932     3.498318739102    -1.576984375239
C      0.935669653995     2.533522604168    -1.047181199144
H      2.062607339043     1.936289157732     0.730149438857
H      0.897697190296     3.530211617351     2.245302709815
H     -0.651361328705     5.237200202069     1.294725912238
H     -1.174196640115     5.226716208362    -1.144840050914
H     -0.181920934909     3.490472847667    -2.638040126735
H      1.412260495325     1.802010771919    -1.691374153537
C      2.216611151107     0.445604974297     3.274558225392
H      2.492607523246     0.656073154472     4.305457710651
H      1.184655513560     0.664193118954     3.012424429389
C      3.077708822252    -0.061831548070     2.357317535936
H      2.699274726050    -0.243803076578     1.365243162535
C      4.502820559482    -0.381851100622     2.635289977673
O      4.940673421278    -0.207405938114     3.800236370295
O      5.392049009687    -0.871670995015     1.655449124373
C      4.902131111954    -1.102608802372     0.326783618841
H      5.736352198713    -1.472270945352    -0.308223343938
H      4.113264277325    -1.886545490907     0.322284698893
H      4.524731864579    -0.162950432256    -0.136538061778
Pd     0.178913619317     0.416695292017     0.581386496068
C      1.433349265916    -1.662749128886    -0.937830044194
O      1.536585926997    -0.336994935780    -0.696609080903
O      2.230694097106    -2.294413943528    -1.653078600061
C      0.225149971697    -2.356938505907    -0.227864450978
H      0.535551343590    -3.385096994349    -0.000894349618
C     -0.993744657411    -2.392487184000    -1.124150768484
H     -1.824606640281    -2.918842860777    -0.611625859339
H     -1.320031003118    -1.356175818043    -1.355412157347
H     -0.758429614498    -2.923466284101    -2.070480621783
N     -0.137816827160    -1.566905197235     0.962405570743
C     -0.542689740067    -1.999148097743     2.123404815778
O     -0.915055127271    -1.208046149474     3.111595471494
C     -0.573140878310    -3.440559697307     2.427517392761
H     -1.245538321022    -3.939863474478     1.709981869199
H      0.456783066995    -3.830608200594     2.361490841199
H     -0.953937915090    -3.589612286681     3.455657913996
N     -2.483310314658     1.803837819253     0.486773306458
C     -3.641084394366     2.446187051163     0.141156282680
C     -4.515371618202     2.875370416740     1.125407282431
C     -4.225512891401     2.666249636072     2.458618548915
C     -3.055267622093     2.026064543451     2.777248011116
C     -2.202056345839     1.615336986841     1.726897677784
H     -3.872055221596     2.612591394224    -0.904389070527
H     -5.424782799114     3.379080150495     0.842982228689
H     -4.905046141984     3.005095488920     3.235992696625
H     -2.757322470363     1.845789479574     3.789459470535
O     -1.060394896835     1.021174071642     2.111096862413
H     -1.021060879106    -0.188161154973     2.831254873047

