# STO-3G

title

0 1
C      0.267830417558     2.876658876537    -0.226588009251
C      1.598597836620     2.956344342941    -0.713808942269
C      2.450505810203     3.968576645402    -0.241159109939
C      1.973089384164     4.908289570693     0.696153870835
C      0.648224851759     4.832564087874     1.177594751366
C     -0.208966285364     3.817679147801     0.723621739522
H     -0.467275543326     2.250931152551    -0.762696378381
H      1.957547104947     2.216610084162    -1.421118210605
H      3.476613408433     4.021314396097    -0.594863446202
H      2.635490324354     5.692540003265     1.056712108915
H      0.291551575556     5.556494865669     1.905188791244
H     -1.225656139366     3.732677485287     1.100161868566
C      1.503569898086     1.769319996806     3.000083373097
H      2.088331249497     2.571017668094     2.558095551012
H      0.529119794955     2.041984842729     3.395984459872
C      1.909207419120     0.478037797991     2.996862372938
H      1.261494348227    -0.279845523073     3.413366580165
C      3.157954948774    -0.017189884776     2.396531282112
O      4.059663285630     0.790679575197     2.046510944688
O      3.311521147265    -1.406976291911     2.228650246068
C      4.493554931988    -1.817786663514     1.525748762854
H      4.504549627050    -2.924149630650     1.429205443886
H      4.515798795324    -1.382321965309     0.499465299110
H      5.410333747011    -1.504909746692     2.075185303199
Pd     0.039975990915     0.604204021476     0.519524558759
C      1.688244605958    -1.330815426038    -0.808588389651
O      1.507127539208     0.002249685504    -0.703895569570
O      2.610787316633    -1.854244399418    -1.459234039770
C      0.619840241901    -2.197601515588    -0.067098953733
H      1.142061789879    -3.083754003326     0.316559641644
C     -0.471181380252    -2.639239584068    -1.020314828695
H     -1.214139359076    -3.266346998113    -0.487691677882
H     -0.985356948855    -1.748903148858    -1.438047439887
H     -0.032864014801    -3.229855891757    -1.852514363834
N     -0.022010979427    -1.391599911017     0.987505268787
C     -0.469155071515    -1.795502506947     2.144066255310
O     -1.084980056274    -1.005411227669     3.001363163536
C     -0.257523459841    -3.180438519879     2.600368513258
H     -0.730335342424    -3.871015613192     1.883187947514
H      0.830775967341    -3.353666974809     2.674544965789
H     -0.716021632928    -3.311083914262     3.598801313065
N     -3.161700079289     2.574093302592     1.331524311941
C     -4.371102208960     2.810031714197     0.734567724841
C     -5.012845427111     1.794951409965     0.046314372105
C     -4.447360160618     0.540470088394    -0.038333789342
C     -3.238526350913     0.328977192575     0.574801829203
C     -2.634061177934     1.405585017353     1.273425530287
H     -4.816755084422     3.796159968037     0.793354804318
H     -5.962275496271     1.993437065404    -0.423237878285
H     -4.948820261142    -0.260195692358    -0.575512378450
H     -2.754190861142    -0.624708428843     0.555364737511
O     -1.441320047657     1.129701186061     1.862006296943
H     -1.309618166491    -0.020663390207     2.609525623380

