# STO-3G

title

0 1
C     -1.647461849106    -3.266784498900    -0.577197211379
C     -2.125383747592    -3.037760646117     0.751830676667
C     -3.464354701061    -2.624716130381     0.961512574517
C     -4.322494182544    -2.468500779798    -0.133020434303
C     -3.866068612163    -2.730930812330    -1.450807961237
C     -2.545853273708    -3.126985883600    -1.674677798627
H     -0.671409474250    -3.719906076065    -0.725365089844
H     -1.479764454137    -3.271155786770     1.592188519008
H     -3.819466191807    -2.440627737192     1.971517905083
H     -5.350080396606    -2.149126676866     0.024164842352
H     -4.547798461422    -2.612732569017    -2.289249418803
H     -2.191417117792    -3.321099761755    -2.680018795480
C      1.778391705208    -1.909771688391    -2.120213556383
H      2.158680958268    -2.470908814656    -1.268827742626
H      0.740846308308    -2.075787945711    -2.397193392792
C      2.507205503715    -0.984645368101    -2.786343299145
H      2.066021425274    -0.454937626219    -3.618200911792
C      3.873517915311    -0.568359814084    -2.430663529451
O      4.308915177647    -0.789383232228    -1.265371214277
O      4.549347631948     0.303953565271    -3.301101533757
C      5.835283537409     0.762081545345    -2.860167675609
H      6.275545434092     1.424497648202    -3.636618997315
H      5.744928571398     1.347698230514    -1.917451945564
H      6.528703449104    -0.095019514626    -2.701488715823
Pd    -0.469937147886    -1.305096656458    -0.001782367065
C      1.822449904315    -2.204612036542     1.533493035381
O      0.742216221203    -2.652252164332     0.893265811787
O      2.625471135516    -2.920002459330     2.165595618695
C      2.034391626772    -0.658251585648     1.457702728387
H      3.108860540465    -0.541651535404     1.241769612049
C      1.732072802101     0.003747622480     2.786020810909
H      1.966055871277     1.086950296418     2.736251376861
H      0.653539826940    -0.117458700957     3.020061228318
H      2.336982013275    -0.459122661937     3.594318146880
N      1.147806760827    -0.019301498655     0.445794245459
C      1.560641723636     1.029267816208    -0.180713533103
O      2.788754650710     1.594603616107    -0.082856155224
C      0.671549503504     1.719659938436    -1.105208686954
H     -0.274684467154     1.932784669020    -0.577699857464
H      1.137093679167     2.662157082614    -1.441964752088
H      0.509814160588     1.058721721457    -1.970105595480
N     -1.250381036206    -0.627110351052    -2.997499279331
C     -1.468275519818    -0.449435805877    -4.336889241801
C     -2.427782662931     0.445051843425    -4.773370697173
C     -3.178845518232     1.162733935450    -3.866744078302
C     -2.943166485394     0.971378716177    -2.531671566045
C     -1.950809184180     0.042188643843    -2.132048825713
H     -0.882949104260    -1.012110543953    -5.054505826574
H     -2.590886213980     0.573958645303    -5.830260609939
H     -3.938784822391     1.862773177733    -4.202847268475
H     -3.491185941636     1.485402439979    -1.769015023472
O     -1.810771364070    -0.049227537265    -0.812773530304
H      3.437970349541     1.015038452032     0.372861254656

