# STO-3G

title

0 1
C      1.260995299153     2.734737955296     0.476502695582
C      0.609311635753     3.617496937356     1.381707395674
C     -0.291693070598     4.575214611978     0.903478608200
C     -0.554856873626     4.667143618611    -0.483562101799
C      0.073889007329     3.796114073910    -1.388253068837
C      0.990152131134     2.834709058939    -0.915728806280
H      2.103744190686     2.137838737578     0.825615953883
H      0.813214612013     3.539005968374     2.445733900750
H     -0.789820479243     5.247380258693     1.597880938370
H     -1.249770249000     5.420265677808    -0.848777486644
H     -0.132546600806     3.866974460105    -2.452607341972
H      1.512766847720     2.174141842458    -1.599892342973
C      2.065791975256     0.931522277250     3.422059786956
H      2.644257196784     1.838502418129     3.256980474071
H      1.143032962427     1.040992765484     3.984694968632
C      2.420508937336    -0.267111317819     2.904830401350
H      1.789245162397    -1.125564346019     3.080095608758
C      3.589487082724    -0.509670909086     2.045228092385
O      4.407062890000     0.421744742891     1.814404166448
O      3.745597393293    -1.785200886207     1.473598893802
C      4.787731896309    -1.901748398038     0.493887289852
H      4.798678845076    -2.934344330275     0.084353280817
H      4.611900811913    -1.201213895358    -0.355663078610
H      5.783321959029    -1.690454117083     0.945191520667
Pd     0.349613496178     0.534270372697     0.625774642031
C      1.630072130454    -1.323978653087    -1.137772542867
O      1.699641235673    -0.036358821602    -0.744575756952
O      2.413767736443    -1.846131136469    -1.952547022161
C      0.446565594790    -2.131037354557    -0.508174954745
H      0.795576249333    -3.164703814402    -0.385330561855
C     -0.762456915446    -2.119923712927    -1.419308068231
H     -1.578474657119    -2.725082230298    -0.975308387123
H     -1.122954244821    -1.076949766392    -1.547103225142
H     -0.498004680155    -2.541237462599    -2.411955928691
N      0.039421307860    -1.486586063540     0.754490873973
C     -0.376668870437    -2.057059283032     1.847941246285
O     -0.753415076402    -1.386219624017     2.923763995515
C     -0.400756310325    -3.524470760060     1.980904636181
H     -1.058112709125    -3.939307732367     1.198748611816
H      0.633476002105    -3.896970207546     1.882023132095
H     -0.794840190148    -3.795608519589     2.978292165650
N     -2.384103555487     1.811310741589     0.648984137600
C     -3.573841814711     2.421021311540     0.358273272395
C     -4.478571710042     2.691973717775     1.371003469010
C     -4.186657127162     2.357308608041     2.677792819268
C     -2.983516002123     1.754311226384     2.941957965736
C     -2.099932722323     1.507270637662     1.864936122926
H     -3.806113594941     2.685173768006    -0.666649382077
H     -5.413288967237     3.170795434456     1.131547127192
H     -4.890379234942     2.571267200614     3.477650113854
H     -2.683275957970     1.482697775996     3.932560565163
O     -0.928236558415     0.941376552978     2.201627391011
H     -0.866457592521    -0.333650259216     2.756742028656

