# STO-3G

title

0 1
C      1.367690982099     1.584755729818    -1.404565772651
C      0.769917401208     1.602412888974    -2.698129658184
C     -0.012716517865     2.689287711631    -3.087497479577
C     -0.213178611516     3.782976067102    -2.202567048199
C      0.376560896800     3.787922542480    -0.936096735748
C      1.182959719879     2.693095244194    -0.524707603940
H      2.095243406845     0.824501048519    -1.138224364828
H      0.932433926645     0.771241862476    -3.379787090063
H     -0.478929210183     2.700994274721    -4.069157093874
H     -0.832053986204     4.618930861828    -2.518874513141
H      0.234121117741     4.631091277444    -0.265384148732
H      1.772418952922     2.713201415387     0.387918083802
C      1.027056223777    -1.906891653583    -1.205946346316
H      2.071749470841    -1.811701527645    -0.912957752935
H      0.641096921144    -1.135958611252    -1.864039469435
C      0.217023524995    -2.880154376297    -0.734085457995
H     -0.829106537783    -2.883979226327    -1.009502529149
C      0.621403624152    -3.932335180495     0.212315387615
O      1.819452475421    -4.011579359929     0.601012805931
O     -0.363052532458    -4.816565491987     0.691130137322
C      0.076569260211    -5.768085892836     1.670224148987
H     -0.779068971147    -6.409187854902     1.972484655338
H      0.873229716705    -6.425531121346     1.253414411751
H      0.462371729168    -5.249471510212     2.577503884884
Pd    -0.142779172050     0.763608652717     0.259542298075
C     -2.933968021106     1.061614357340    -0.297890817896
O     -1.717601997185     1.377304955918    -0.789993822294
O     -4.000894728992     1.318168869221    -0.886070637822
C     -2.909324490561     0.374076306907     1.101343792058
H     -3.757075945292    -0.323299610002     1.129033670937
C     -3.075374292317     1.397340737552     2.206114313377
H     -3.079633508919     0.896451831691     3.194895813200
H     -2.231120589779     2.117603829133     2.175117742817
H     -4.030638318713     1.948407489042     2.076073066293
N     -1.598442741286    -0.275260634657     1.298209068996
C     -1.348325055640    -1.361959860182     1.978519977493
O     -0.138172330952    -1.827820802607     2.184958510537
C     -2.441613628588    -2.186493275917     2.527245912413
H     -3.028113603272    -1.577681543295     3.234351002189
H     -3.058240824514    -2.545352892131     1.685957864917
H     -2.010247020532    -3.057284573385     3.056016812536
N      3.260530681294     1.149760307845     1.169513979205
C      4.612146037293     1.287141744508     1.333045447405
C      5.362259523694     0.230392416596     1.815347237752
C      4.757450619440    -0.967222610999     2.133476422448
C      3.401289886059    -1.074610352930     1.968416108660
C      2.681078354621     0.040984600887     1.473466551313
H      5.091951716519     2.224695574837     1.077763127311
H      6.426551733444     0.346254181345     1.934768648134
H      5.341746633691    -1.806774828735     2.500608485048
H      2.883021806952    -1.991662491250     2.172332873966
O      1.368297482666    -0.164605762163     1.331543698493
H      0.660289724213    -1.165858543871     1.827118238444

