# STO-3G

title

0 1
C     -0.771704526058    -2.068587832703     2.148626264682
C     -0.828508030008    -2.755214620593     0.896845495851
C     -2.074816001110    -2.938280000535     0.238078467666
C     -3.246332710754    -2.456212876370     0.827996889702
C     -3.200407925913    -1.789662258106     2.082297880418
C     -1.982276570261    -1.596576238397     2.732324155485
H      0.176790764539    -2.058363483237     2.689132016577
H      0.068012328925    -3.232602856446     0.507898009677
H     -2.109710107494    -3.460767451712    -0.714421246743
H     -4.201722371896    -2.589062211562     0.326071801158
H     -4.120568161140    -1.420212777297     2.527062625617
H     -1.951829945314    -1.080909759236     3.688991520020
C      1.942326554700     1.067154293866     2.817671239019
H      2.247358848962     1.905140658175     2.195848546818
H      2.679358777132     0.282385110665     2.955970525594
C      0.702085625885     0.952399697121     3.345140467765
H      0.450539070351     0.076110687055     3.924213888250
C     -0.389447933044     1.921792057942     3.152876510318
O     -0.212558855640     2.934798253076     2.419695012112
O     -1.599644208501     1.711351490597     3.835770545652
C     -2.689197286962     2.560653609275     3.450523610340
H     -3.587586071841     2.302379146366     4.050223016444
H     -2.443971690308     3.631630976311     3.629964723804
H     -2.942862789143     2.412238321508     2.376114454559
Pd     0.161832587927    -0.521897558504     0.594377090734
C     -1.687317771883     1.519379975771    -0.201022121047
O     -1.595644972095     0.390140688146     0.523679100654
O     -2.735505463736     2.189524870159    -0.283980278372
C     -0.397042216879     1.938223300892    -0.968153958256
H     -0.309674569708     3.020264423807    -0.802481518267
C     -0.551449094741     1.659611211127    -2.451043770573
H      0.343806584824     2.000561588769    -3.007509037130
H     -0.675246974693     0.567852747422    -2.608464066595
H     -1.443019358825     2.189089280206    -2.848766205054
N      0.773445747129     1.171341559554    -0.486395590542
C      2.034107006226     1.484985509330    -0.603860071101
O      3.016900076355     0.695411037604    -0.210739317319
C      2.516608805106     2.755134696609    -1.184906107743
H      3.185156568972     2.503803979264    -2.026447869972
H      1.706036193923     3.400594851780    -1.543531258754
H      3.087803475007     3.285770561968    -0.402353138609
N      2.196758280757    -2.413719522510     2.717954076438
C      2.919015998024    -3.170012752269     3.600669671351
C      4.193831500785    -3.589964156487     3.269536058276
C      4.743668074372    -3.259258697662     2.049582414123
C      3.995056761923    -2.507008465685     1.181651110699
C      2.692430828736    -2.105869470131     1.568541070222
H      2.491185618531    -3.430108604597     4.561795687525
H      4.755595702112    -4.182624325722     3.972562420873
H      5.743903657250    -3.589289126936     1.781850314427
H      4.360561304379    -2.227868904389     0.214238095554
O      2.056089470242    -1.376349363401     0.641662528354
H      2.702802382584    -0.255440362987     0.162056454459

