# STO-3G

title

0 1
C     -2.116008225499     1.019291533244     1.370930384256
C     -2.582919506534    -0.051888336882     0.548460881718
C     -3.013318675593    -1.268943385676     1.139161067240
C     -2.986456623690    -1.410925551478     2.529512510374
C     -2.538406451992    -0.346026406404     3.356036343048
C     -2.108516363403     0.852770814512     2.786719882083
H     -1.931252795890     1.991245620586     0.909901927248
H     -2.700739693854     0.106758412141    -0.521058100451
H     -3.361912973527    -2.081932859841     0.508056465569
H     -3.305479422718    -2.344735953460     2.985584866441
H     -2.523508411459    -0.475572253485     4.435033349392
H     -1.768584188404     1.670359996468     3.417176676640
C      1.123862833245     3.220279323305     1.246196961746
H      1.401141540436     3.369988164443     2.287156996811
H      0.065106811840     3.160807172899     1.011813291879
C      2.032015848304     3.097068751740     0.250903528704
H      1.689951772056     2.908879335356    -0.758944533322
C      3.492712825600     3.146682196779     0.417168629295
O      3.992788067762     3.352910172120     1.556130484050
O      4.304413322536     2.816604211460    -0.683616544129
C      5.719941949384     2.871164656786    -0.456680388914
H      6.254539031091     2.603310783656    -1.393443887785
H      6.032997843988     3.898436602076    -0.160815145959
H      6.023147134495     2.151499009408     0.337261241003
Pd    -0.116031876875     0.203655854359     0.423268970927
C      1.361161242266    -1.669504218861     2.006428124943
O      0.143885982802    -1.098478133553     1.898360499913
O      1.608274141854    -2.619107133902     2.772751835741
C      2.471879080839    -1.007138832582     1.136710824013
H      3.162623601797    -1.806949990980     0.839808243871
C      3.230587195400     0.021122806632     1.949988364871
H      4.056054980539     0.455449948030     1.354582373524
H      2.542554387834     0.834902354627     2.259072278723
H      3.660559236660    -0.450984910655     2.858344792680
N      1.850500874721    -0.312553595977    -0.011288525241
C      2.366147739981    -0.132262482958    -1.196242581703
O      1.757974006867     0.523134416542    -2.164265337874
C      3.695505550928    -0.667116179508    -1.547333176852
H      4.444323892944    -0.226607894984    -0.869943918340
H      3.663720544759    -1.766200480889    -1.466111724924
H      3.938896375603    -0.383372894999    -2.588367824741
N     -1.570058723303     3.232937247878    -0.712102221320
C     -2.172720739948     4.402570488043    -1.087416671593
C     -2.106891886370     4.822822369626    -2.402696871948
C     -1.440605793734     4.068595557617    -3.344627075919
C     -0.849381576029     2.898796719647    -2.941931236360
C     -0.949162758944     2.513521326612    -1.581964408095
H     -2.696147565988     4.999152656947    -0.349483405141
H     -2.582974063099     5.746313733181    -2.688227257864
H     -1.387489089930     4.392389502807    -4.380678029471
H     -0.326502707455     2.266395725651    -3.630404823152
O     -0.334854990343     1.361755822891    -1.292429299944
H      0.798531154142     0.936919933037    -1.897321181482

