# STO-3G

title

0 1
C     -1.881519322896     1.249616752768    -1.814129420180
C     -1.364916808073     2.565737208412    -1.967874014708
C     -1.920989133106     3.627755868062    -1.246297309814
C     -3.000885462266     3.392631137376    -0.362894959146
C     -3.514035725786     2.096536997398    -0.192939636695
C     -2.964973854895     1.022261081930    -0.922319017324
H     -1.582552386958     0.472528879852    -2.515809610589
H     -0.534374804674     2.740788040056    -2.646578378859
H     -1.522790663730     4.632661956315    -1.363895514138
H     -3.434434593592     4.224730595211     0.187719683938
H     -4.340302032750     1.918380785769     0.489829272556
H     -3.368008482712     0.018794659486    -0.830573805449
C      1.228686461789    -0.316344317986    -3.209048212676
H      2.077749006195    -0.635674725201    -2.611703413832
H      1.136505751418     0.758612323656    -3.340960042132
C      0.323585962198    -1.177381543813    -3.729286743339
H     -0.514134787594    -0.805828420965    -4.304065782451
C      0.338918921631    -2.637469168119    -3.536237721408
O      1.213122852493    -3.171516415796    -2.796770058981
O     -0.625696723967    -3.411281009134    -4.203033575798
C     -0.653765320091    -4.805723746692    -3.868632281992
H     -1.459175554968    -5.305821624027    -4.448142569897
H      0.314023427918    -5.294878485641    -4.120370776283
H     -0.874464274088    -4.947662354128    -2.786223724382
Pd    -0.394253236719    -0.147333119402    -0.561468341838
C     -1.327399103200    -2.850533467351    -0.388669404621
O     -1.681851308906    -1.650763377959    -0.890522873570
O     -1.986357551633    -3.894236055233    -0.555607714093
C     -0.015833990054    -2.840317109378     0.464097978471
H      0.479689957421    -3.804628420892     0.291045647370
C     -0.330605750399    -2.702163361179     1.938491156834
H      0.605996423620    -2.735051181583     2.530849196105
H     -0.832924023963    -1.728786258065     2.121535957466
H     -0.996336704711    -3.527637261654     2.267245390844
N      0.805147216630    -1.674657206869     0.089082566516
C      2.103818302670    -1.619165298440    -0.004598329618
O      2.767607057245    -0.517503638923    -0.316437317741
C      2.943048440794    -2.807916247833     0.230321790327
H      4.006533333813    -2.526352551148     0.125778878577
H      2.753650778930    -3.178792003760     1.250322282948
H      2.692329061807    -3.565701884805    -0.534135713392
N     -0.105071108515     2.200006467432     1.334352968786
C     -0.237249309813     3.167318333783     2.292635918008
C      0.762777271861     4.108864827525     2.468566150328
C      1.894240024038     4.083168942516     1.678573800297
C      1.997228439537     3.107010792602     0.720744202618
C      0.940699434422     2.175247988671     0.588063472547
H     -1.124481573388     3.190238443259     2.914334125312
H      0.650069011672     4.865232167396     3.227126355316
H      2.681186793548     4.820990527840     1.809233156654
H      2.838284090429     3.035110359257     0.062780387572
O      1.097746004968     1.265648502123    -0.389100455612
H      2.150946711756     0.354353169527    -0.385083004589

