# STO-3G

title

0 1
C      0.038431157836     3.409190015789     0.336931511501
C     -0.190843683923     4.695719865079     0.868637778600
C     -1.193776164155     5.525161777316     0.330906763270
C     -1.971471973502     5.077047413660    -0.753033653153
C     -1.739120488067     3.795724070697    -1.293268693536
C     -0.739623548246     2.965572218404    -0.755413635455
H     -3.044042277636     0.574406555845    -0.006175151809
H      0.406043247269     5.048583083465     1.707742258682
H     -1.362585527510     6.513037846389     0.752863064575
H     -2.741259609980     5.718007598570    -1.176240570075
H     -2.326687727409     3.445753484401    -2.138916625737
H     -0.573273644332     1.979812597668    -1.186358954496
C      1.124163514965     2.542575526266     0.943480496802
H      2.000175598490     2.525142996026     0.089647883837
H      1.674878625999     3.059898207388     1.733301602002
C      0.807414132186     1.116478694719     1.257636374917
H     -0.152479100352     0.760755079358     0.925860810610
C      1.276473417243     0.441909089360     2.481516353240
O      0.980874355696    -0.769952052417     2.636636814056
O      2.365465860973     1.006414604037     3.169851589734
C      2.817677736848     0.275308869194     4.318757468645
H      3.656583313025     0.822695376907     4.799687728863
H      1.998226869524     0.168511829184     5.066249481063
H      3.183814938363    -0.735868237430     4.027868311578
Pd     2.071925438280     0.804410689794    -0.347105722774
C     -1.098682609214    -1.158529784208    -0.255408872961
O     -0.137649013250    -2.068941867177    -0.046762473799
O     -1.162452596627    -0.385204276245    -1.241539833645
C     -2.120619787000    -1.077369465350     0.902601863523
H     -1.595556107977    -1.233464945506     1.848247970322
C     -3.225313500560    -2.102777633305     0.773771349753
H     -3.909494261459    -2.015432429264     1.642925534729
H     -3.801360240831    -1.908612803479    -0.154046223099
H     -2.797680092688    -3.126159810469     0.746524619931
N     -2.729819354371     0.252839934352     0.903187457445
C     -2.559712147533     1.131597363767     1.930712092057
O     -1.840438338607     0.932536808229     2.940144060839
C     -3.277994796802     2.419425009281     1.820263641265
H     -3.925053234676     2.516379597429     2.706559448331
H     -2.518092826730     3.217239418935     1.807802466480
H     -3.880606980407     2.457577280549     0.896343360317
N      3.201068877237     0.179671983938    -2.149340208606
C      3.967607378370     0.494727378635    -3.236017637085
C      4.295823012472    -0.489962263911    -4.151111296446
C      3.855432080424    -1.789850505752    -3.980535116020
C      3.088129233567    -2.082861342278    -2.880833499430
C      2.782358215216    -1.045815561896    -1.977946129516
H      4.314204792758     1.511765675471    -3.378092695117
H      4.898742636404    -0.236294975011    -5.007848738508
H      4.111782739438    -2.562436825902    -4.700767854533
H      2.713847509165    -3.066842084721    -2.682893749145
O      2.047797279883    -1.300274150872    -0.916890304621
H      0.754021002366    -1.895843154514    -0.545530394580

