# STO-3G

title

0 1
C      0.147040734529     3.542406252587     0.065720007884
C     -0.148840350132     4.847910671127     0.511588314037
C     -1.166140267450     5.601860177228    -0.104924518875
C     -1.891611881970     5.058423157181    -1.181838948580
C     -1.597040552537     3.755437296403    -1.632653603710
C     -0.583868089013     3.000675324625    -1.015062775869
H     -2.970244897873     0.825957500816     0.304872347368
H      0.410998638258     5.275202028756     1.341716533642
H     -1.384474051739     6.606437835561     0.249486811651
H     -2.670145304425     5.642612681502    -1.666740823444
H     -2.147439030293     3.328936787239    -2.467866528628
H     -0.370984834918     1.995067840853    -1.372917107654
C      1.253485669187     2.759133428729     0.743135931664
H      2.130420239953     2.672047475760    -0.100712807378
H      1.800411212684     3.355450103483     1.479051329816
C      0.957196399097     1.364331480412     1.197275360829
H     -0.018107445439     0.983603524506     0.952126533366
C      1.512333455318     0.795593534698     2.438081964465
O      2.617540493960     1.244880791394     2.843731092756
O      1.071979007768    -0.477071391274     2.828942732170
C      1.646460014027    -0.993839420857     4.036166477554
H      1.203173691468    -1.989191583726     4.254218366010
H      2.747798104146    -1.119877493894     3.931447136495
H      1.425137134404    -0.321438782904     4.896002266821
Pd     2.177247210381     0.912899942721    -0.402679843399
C     -1.060918884389    -1.008464538728     0.016315454201
O     -0.074138620280    -1.880650680144     0.272286697852
O     -1.176440170647    -0.331203168016    -1.032442363473
C     -2.036446676571    -0.838717379760     1.204713655563
H     -1.487031287499    -0.992216474535     2.136325714614
C     -3.194838647482    -1.809763102917     1.144540165372
H     -3.844757294182    -1.661029218903     2.031479789746
H     -3.791138549275    -1.614566776305     0.229544586298
H     -2.820668654494    -2.854099935721     1.135785314520
N     -2.578279617439     0.519482485003     1.189076538489
C     -2.305130399401     1.430288430380     2.164399941401
O     -1.537564967449     1.245592706914     3.139166153600
C     -2.986591247797     2.731415711313     2.012191291641
H     -4.073017504008     2.546578422975     2.016892221132
H     -2.692244628159     3.384920635652     2.850523480001
H     -2.670603804721     3.175652651386     1.053266863355
N      3.250113555392     0.085317041376    -2.164262246516
C      4.008494589268     0.265719700373    -3.286746556883
C      4.286685443954    -0.814433621449    -4.105782644169
C      3.805741636342    -2.075093915615    -3.802387342322
C      3.048596894291    -2.232417875218    -2.668235250381
C      2.795012336989    -1.102080771520    -1.866708643825
H      4.386563896814     1.251268031203    -3.532653994641
H      4.883236768313    -0.666819931154    -4.991359835726
H      4.023341969264    -2.922675031448    -4.447065573225
H      2.645901281337    -3.178835049194    -2.369475538442
O      2.071986496185    -1.226652298566    -0.774206406586
H      0.785246835066    -1.764181144778    -0.293732441496

