# STO-3G

title

0 1
C      1.936241220918     3.115772352932    -0.611543983643
C      3.263355430307     2.865464519881    -1.066782911701
C      3.621152167706     3.154152727841    -2.386227751596
C      2.663841411967     3.692582850016    -3.289375565384
C      1.349869646681     3.920769048985    -2.867720789188
C      0.972564606364     3.640136245544    -1.522602453065
H     -2.870284736793     0.181305880589     1.829375256367
H      3.999859536579     2.470533046853    -0.371299418251
H      4.641664668061     2.981852423002    -2.721070355889
H      2.963078714950     3.940403360915    -4.305191226993
H      0.620181977272     4.354585524445    -3.546842591155
H      0.014966457351     3.993161166066    -1.153138281502
C     -0.691703608912     2.178363766397     0.489361406347
H     -1.623152638031     2.581241799064     0.085062642208
H      1.710066497599     3.067663461572     0.448049681339
C     -0.373607338747     2.178450399096     1.799537575005
H      0.524846417725     1.682343679580     2.154272285921
C     -1.222822021001     2.751884128197     2.857839478600
O     -0.820019320545     2.679427906953     4.050918343177
O     -2.304076824399     3.581565609073     2.507821463722
C     -3.182167846186     3.933921081487     3.584644722161
H     -4.009846733500     4.562406503882     3.192778607662
H     -3.628177906030     3.019002373369     4.038524005964
H     -2.641614578346     4.513902215675     4.366327070323
Pd     0.425970213972     1.297678123614    -0.911174890832
C     -1.308997675295    -0.842642584389     0.456582946193
O     -2.342820301298    -0.132569525578     0.292668599587
O     -0.159462924086    -0.571854444576    -0.139346320092
C     -1.250865730531    -2.008876020525     1.488925585198
H     -0.319308965194    -2.557805739798     1.315420186966
C     -2.413143092926    -2.969190073258     1.331160391119
H     -2.306327031054    -3.802289946006     2.056525020949
H     -3.363152893490    -2.433680936489     1.539684593723
H     -2.437967931200    -3.380078533305     0.301317234468
N     -1.230314558388    -1.555556483447     2.887563087752
C     -1.936343004128    -0.615054510363     3.405975918241
O     -2.830599385406     0.247578518519     2.831255968995
C     -1.771283006837    -0.419235290455     4.849346351972
H     -2.034077695784    -1.365495137714     5.349820666016
H     -0.713473841085    -0.164995617683     5.028798606070
H     -2.423315692496     0.403892078332     5.192233102438
N      1.649306193827     0.127479567815    -2.319169657115
C      1.864812058176     0.531399562769    -3.609756715559
C      2.830288577149    -0.086908732985    -4.378950845672
C      3.579549949128    -1.121623046739    -3.863016384637
C      3.323087052535    -1.531079076502    -2.581365558276
C      2.316306421351    -0.882122160060    -1.836440297761
H      1.275868266046     1.337709390502    -4.028000825892
H      2.996817346211     0.246107569478    -5.390258381008
H      4.343044372253    -1.610509856795    -4.462509809292
H      3.850784453400    -2.345693111711    -2.126114815552
O      2.119297351214    -1.388895529254    -0.628301867720
H      1.200669377449    -1.131404664072    -0.231369317359

