# STO-3G

title

0 1
C     -0.367461159718     3.349043975841    -0.010579872677
C     -0.499667838964     4.634306520084     0.580262955446
C     -1.248707223725     5.643199797162    -0.049224603151
C     -1.869822129138     5.397479048471    -1.289781228560
C     -1.732615911347     4.132166701317    -1.895170053782
C     -0.989337748531     3.118906494884    -1.266228019467
H     -2.557825038970     0.960491315387    -0.139225918991
H     -0.003406486410     4.835904793648     1.526335823349
H     -1.340324127949     6.619890735600     0.420906482071
H     -2.444168787828     6.180425055633    -1.779280343824
H     -2.205695432016     3.935314935735    -2.854633407389
H     -0.897308867976     2.140345202244    -1.728829463044
C      0.411019528315     2.301957555286     0.676811438777
H      3.160656252094     1.686407629028    -0.166710414320
H      2.685057767869     2.315855666034    -0.026621075720
C      0.425866898614     2.033226943189     2.003937208821
H     -0.265035313951     2.501785673978     2.693528250832
C      1.333873323325     1.043112413768     2.589610208932
O      2.280656890788     0.605311317590     1.870745132007
O      1.294634637136     0.799717927788     3.970772302600
C      2.132890857126    -0.266280443044     4.437097150326
H      1.994054785322    -0.388535778857     5.532984495513
H      1.857565076882    -1.227842381849     3.945379532900
H      3.206390933395    -0.042935089781     4.244874182483
Pd     1.513777444797     1.030075575188    -0.490053336273
C     -0.582186757459    -0.814234992245     0.216670109666
O      0.302468509559    -1.445101685740     0.882103185034
O     -0.322409011430     0.068669590422    -0.723374976329
C     -2.074173621124    -0.970521269539     0.572569723765
H     -2.143731152671    -1.461971884047     1.545757142683
C     -2.847377833934    -1.758593355504    -0.461310617254
H     -3.902949299364    -1.854192171864    -0.133246646326
H     -2.823419600121    -1.216760184368    -1.428972826021
H     -2.407110551658    -2.769362941685    -0.582257960396
N     -2.664387146171     0.363123426260     0.674311076472
C     -2.964891609017     0.908303743841     1.887116851899
O     -2.814406321599     0.337465807571     2.990517296770
C     -3.523099586232     2.275570676876     1.837635389757
H     -4.441581489596     2.241182739547     1.229624642636
H     -3.742344792296     2.604718350518     2.867009553249
H     -2.774536287464     2.936416808999     1.368201647559
N      2.597879255633    -0.412823370977    -1.674156341153
C      3.029021941587    -0.080239606137    -2.930406116357
C      3.954877767656    -0.872321472609    -3.575491037778
C      4.434611413833    -2.016978819940    -2.976960727139
C      3.963565028250    -2.344843243085    -1.733389653167
C      3.010999842084    -1.513276885043    -1.105254003418
H      2.660288919016     0.821162877293    -3.406286500049
H      4.296723261974    -0.598021869048    -4.560624835080
H      5.159164962167    -2.649745139389    -3.483097740710
H      4.276193576139    -3.234424238033    -1.222445489485
O      2.596792528874    -1.962256556453     0.057871866361
H      1.691314575312    -1.596013406393     0.454568348114

