# STO-3G

title

0 1
C     -0.072992225960     3.802558724163    -0.290350009776
C      0.122782327283     5.024377128260     0.409478954103
C     -0.198242959767     6.254627569192    -0.188705555997
C     -0.707458389194     6.290522673576    -1.502243019980
C     -0.897889349835     5.085506057836    -2.207759643602
C     -0.584479045878     3.852104700176    -1.612338259212
H     -2.776646892338     0.887712183758     1.132286809672
H      0.538123700380     4.999648344749     1.414282660381
H     -0.045590226281     7.180125639645     0.362243259002
H     -0.950798695327     7.242681068666    -1.968227994622
H     -1.300647229321     5.105567935031    -3.217682059890
H     -0.774459783844     2.921224569942    -2.135993600356
C      0.300402758623     2.534389567692     0.358519126003
H      2.712106621919     2.506469421270    -0.679968069938
H      2.830925494329     2.102347016112     0.014423965444
C      0.068151498171     2.146989694929     1.633930753092
H     -0.597175152525     2.697692458328     2.287976436167
C      0.703184998801     0.958680608194     2.211788024103
O      1.679508593484     0.441643058600     1.590985828443
O      0.420032648311     0.607111659869     3.540610557366
C      0.971848028033    -0.642135984085     3.980638064372
H      0.650235055660    -0.839370858233     5.025814993668
H      0.602305008812    -1.483100298859     3.348499025120
H      2.084419917333    -0.618853855959     3.956061364886
Pd     1.468562721588     1.235448358034    -0.699754669745
C     -1.365101440271     0.064621530036    -0.769222285072
O     -1.860639262418     1.041416506524    -1.371896380904
O     -0.052392579066    -0.168314151990    -0.680037348745
C     -2.219982258931    -0.876807513341     0.110458227679
H     -1.651330781343    -1.756016921003     0.421610774356
C     -3.512682652423    -1.301594923958    -0.549905427862
H     -4.082095616840    -1.955617110684     0.142110373990
H     -4.121930949330    -0.400698149748    -0.773493819791
H     -3.300692558060    -1.852213312471    -1.488631705712
N     -2.544703605076    -0.084383337829     1.304917543791
C     -2.446113345486    -0.608617376380     2.557480677551
O     -2.031352699949    -1.763740973946     2.811220372723
C     -2.884806894974     0.257424198062     3.675110098239
H     -3.717673038303    -0.256894376522     4.181369637354
H     -2.031641860824     0.371849079564     4.362336476878
H     -3.213463278209     1.243705642123     3.303546532623
N      2.729194513089    -0.251432422816    -1.717151448532
C      3.753790981681     0.127396173333    -2.543644332360
C      4.700107264452    -0.792272965310    -2.943474819829
C      4.616612572264    -2.105537645551    -2.534597687653
C      3.569828138241    -2.467645551307    -1.729831886156
C      2.620805372395    -1.497743480239    -1.343214390336
H      3.830240441634     1.157989063352    -2.870157277279
H      5.506904072505    -0.482250181791    -3.588232937598
H      5.356160431057    -2.837003399881    -2.850286847637
H      3.433973996069    -3.475827390577    -1.390027576317
O      1.635030169400    -1.975876164138    -0.607329749406
H      0.852312554571    -1.311049226390    -0.478527923293

