# STO-3G

title

0 1
C     -0.683508386306     3.753661238985    -0.153747663203
C     -0.179724085254     4.721347708541     0.744399372873
C      0.059114672406     6.042069428202     0.322085526585
C     -0.203541051222     6.416485540341    -1.010129056086
C     -0.712349846516     5.461866064576    -1.912195441018
C     -0.949555058206     4.141909762662    -1.485750637250
H     -1.589735098225    -1.279046243334     1.787140541878
H      0.015075567181     4.444221902219     1.780198439961
H      0.440059241396     6.776689360609     1.028299494203
H     -0.023654929426     7.437884915013    -1.337542107797
H     -0.931345580165     5.747753397781    -2.938726250774
H     -1.357070550211     3.414809901477    -2.186780048568
C     -0.880396847816     2.313791797982     0.293737703400
H     -1.171905176677     2.295479934257     1.346545330857
H     -1.703139929260     1.855695963125    -0.265721180433
C      0.417304569846     1.506229523274     0.055358519557
H      0.732411570265     1.702812509593    -0.963603500997
C      1.531755954681     1.685536216482     1.007978112312
O      1.326333938264     1.415914730652     2.220037650065
O      2.833079811170     1.833156410015     0.501228240172
C      3.891874903159     1.789916196903     1.467776457349
H      4.866998059686     1.926193226836     0.952198497627
H      3.778002132798     2.604863598575     2.218392215671
H      3.912226510499     0.804930674985     1.988012946755
Pd    -0.078231048048    -0.497450090638     0.127054125363
C     -2.100201257476    -2.774402011650    -0.028822890921
O     -0.813200686877    -2.590761501340     0.297559225615
O     -2.629359711184    -3.812124008674    -0.457332198691
C     -2.922786652618    -1.461261585886     0.213623536014
H     -3.904067714462    -1.725415484841     0.626114938103
C     -3.113271151170    -0.674022499183    -1.064239125693
H     -3.737136673125     0.222640205743    -0.871583730052
H     -2.135690793656    -0.355331025411    -1.471615858035
H     -3.633442711797    -1.302660533295    -1.817192076056
N     -2.136299522556    -0.640692362464     1.198461346950
C     -2.740373653164     0.398767298346     1.914552397935
O     -3.664946085517     1.106618512812     1.491241319512
C     -2.195919492765     0.631378620545     3.272573766870
H     -1.106486369478     0.793309786691     3.201352059068
H     -2.691758577672     1.519372880481     3.703756910561
H     -2.410825456339    -0.259263946898     3.888088184144
N      1.785734408302    -1.120858264110    -0.642793184905
C      2.599039294418    -0.396015750485    -1.481606536981
C      3.886749736686    -0.811545003201    -1.746326668126
C      4.381120062456    -1.964374945823    -1.186779289368
C      3.548491542376    -2.703566262667    -0.395443056910
C      2.225697423007    -2.266893953293    -0.163554602033
H      2.241572702224     0.505301317043    -1.955916680107
H      4.511672688877    -0.219315536000    -2.395148226168
H      5.397547991640    -2.292505411139    -1.388350863464
H      3.858561025578    -3.634369139281     0.038000565770
O      1.519524446321    -3.112338813731     0.543013918977
H      0.463718090220    -3.035454455461     0.483438131614

