# STO-3G

title

0 1
C     -0.374711251515     3.328927199164    -0.648526139300
C      0.153179024517     3.080609702221    -1.936722638482
C     -0.641825358072     3.233828704501    -3.087902234137
C     -1.983372082102     3.647798967610    -2.970675408219
C     -2.520350926732     3.900451712144    -1.693706221789
C     -1.722069649595     3.741970190477    -0.544886001423
H     -1.477107857709    -1.172947624149     1.210213926546
H      1.192506024484     2.779627490705    -2.049130404009
H     -0.215713753296     3.040393666074    -4.070030040859
H     -2.597613798745     3.774599069177    -3.859304891599
H     -3.555152809033     4.218810172549    -1.590082688237
H     -2.152088790782     3.939554182767     0.434360990502
C      0.505291391894     3.241184189693     0.590239883826
H      1.520695688156     3.550139190265     0.324449529552
H      0.155154499340     4.000724652700     1.306592811951
C      0.481995713490     1.885615559172     1.345698875387
H     -0.486467626434     1.795686298975     1.835142309225
C      1.540165547415     1.576687155642     2.331958485027
O      2.620977273783     2.221637744984     2.321826355406
O      1.347598662026     0.474909912574     3.179651902460
C      2.470674077507     0.109403961926     3.994464883305
H      2.205698682468    -0.773385930108     4.616120003683
H      3.345939685925    -0.165133233563     3.361344862758
H      2.755422251362     0.942365753979     4.677146680222
Pd     0.245748239826     0.187160030572     0.169352912051
C     -1.646566601610    -1.842795987436    -1.159869272949
O     -0.360474529191    -1.661951786836    -0.845233792761
O     -2.124133315136    -2.743720966263    -1.871022820339
C     -2.559836883744    -0.754437912580    -0.500251738842
H     -3.537730539781    -1.204282605904    -0.289430247496
C     -2.736354609434     0.443552770098    -1.401232377853
H     -3.484692051698     1.140633570691    -0.974150996632
H     -1.773773018225     0.976329304055    -1.513075041156
H     -3.093552202987     0.122077397580    -2.401410168180
N     -1.885200057049    -0.334617212129     0.785212552119
C     -2.506807317697     0.503829851537     1.730759735599
O     -3.141532474480     1.531586464583     1.465146177640
C     -2.325150757241     0.107932584853     3.148107646745
H     -2.820425775143    -0.867591902295     3.291363803020
H     -1.248170928560     0.025285731975     3.365998664885
H     -2.795342419373     0.868773801244     3.798148589600
N      2.276058783563    -0.060891077511    -0.330674491407
C      3.194937988276     0.955668085033    -0.407689198523
C      4.538952179614     0.681206671280    -0.545844979762
C      4.986236853220    -0.615266670844    -0.619553203107
C      4.059444873186    -1.618587754191    -0.581899685186
C      2.687579441150    -1.304813384015    -0.462060016967
H      2.877081057839     1.982106402589    -0.364386732239
H      5.243279910770     1.496424527306    -0.586678274421
H      6.045399200451    -0.836016497737    -0.723286789871
H      4.338491780978    -2.650328693318    -0.668629231629
O      1.912522865073    -2.358667339210    -0.500102906804
H      0.878748407250    -2.210899115316    -0.690638164199

