# STO-3G

title

0 1
C      0.369566818152     3.461949171966    -0.239226202365
C      1.660840941213     3.868242330542    -0.648900975807
C      1.863792678324     4.482366210649    -1.898191752279
C      0.774373188297     4.709502109818    -2.763829018103
C     -0.517721545547     4.320747574453    -2.363283519635
C     -0.713634366253     3.704551898518    -1.111486948398
H     -2.501381520409     0.403517390010     0.709363637004
H      2.511643026459     3.709655884763     0.012420174899
H      2.865510662274     4.789822579214    -2.191716999927
H      0.930625069590     5.190019605846    -3.726674639510
H     -1.367937084749     4.496947428801    -3.018100785257
H     -1.719541633641     3.413360279283    -0.812216658449
C      0.150889781282     2.824010356717     1.123031128085
H      0.456275876378     3.544817051702     1.900857042596
H     -0.925357035587     2.670372630353     1.275426692144
C      0.918772979879     1.487012833797     1.333953131586
H      1.916162509555     1.560428888405     0.901432752132
C      1.072307861927     0.965048631650     2.711340299050
O      0.394167880505     1.458344133325     3.649606155641
O      1.974029341526    -0.086634648331     2.926948193814
C      1.992860211602    -0.634345328871     4.253050551560
H      2.736494682878    -1.459079562927     4.301623366217
H      2.282305496002     0.139207719112     5.000108114331
H      0.996503871961    -1.055243357301     4.522453879434
Pd    -0.050957996603     0.176895678384    -0.006105419726
C     -2.070874377919    -1.598215367027    -1.232990755741
O     -1.100230701242    -0.762672383986    -1.568964899668
O     -2.740360298561    -2.312183557514    -2.015061679400
C     -2.331073024133    -1.678487894361     0.321084587001
H     -1.693401668186    -2.469299647276     0.729755220334
C     -3.782126517507    -1.973459146219     0.659099828666
H     -3.913520165228    -2.074567242729     1.755518393479
H     -4.425598013958    -1.151761404021     0.284023024270
H     -4.096475627156    -2.925012976376     0.181237158891
N     -1.925846699765    -0.383061703509     1.018147537111
C     -1.782118841302    -0.481315042695     2.430134355465
O     -1.165799020795    -1.394591554023     2.986833794315
C     -2.484374413271     0.541951413322     3.234434568652
H     -3.565373897127     0.450516003512     3.037251809337
H     -2.269454785075     0.355580889157     4.302341179980
H     -2.119576057927     1.541277013122     2.952493348404
N      1.501628237457     0.407469564221    -1.298182453942
C      1.260859052072     1.052525013930    -2.482762915874
C      2.268243194423     1.149917302740    -3.423878146495
C      3.506375209588     0.592316765333    -3.184856363628
C      3.704425074405    -0.068708074132    -1.998739668328
C      2.644823094325    -0.149894356543    -1.077056062145
H      0.289621839186     1.491922260575    -2.674279357097
H      2.075616978419     1.669976183436    -4.347487544425
H      4.301269544240     0.665825159173    -3.922140763385
H      4.633878455980    -0.544584495543    -1.758134482025
O      2.915815678393    -0.843464216965     0.028920980507
H      2.114564233184    -0.912720772150     0.609207603405

