# STO-3G

title

0 1
C      2.232035680893     2.975187195047     0.807692090054
C      2.773620671581     3.751029570094    -0.242017284410
C      3.229500110648     5.061473064617    -0.008571017036
C      3.147563276528     5.619163871315     1.282716575663
C      2.613035574206     4.853262899337     2.336947155903
C      2.160002488727     3.541933258156     2.099833244125
H      0.936010425297    -1.580090571948     1.306726715170
H      2.852647197862     3.323337368949    -1.241307342414
H      3.652531782689     5.642546441680    -0.825450864205
H      3.502549249043     6.630903489179     1.465437543697
H      2.557440742416     5.271972767714     3.339473102704
H      1.756316851326     2.948556220532     2.919163433502
C      1.691950774269     1.575204455340     0.545296594159
H      2.340659829193     1.049312617185    -0.168108803335
H      1.697781040674     1.003501128898     1.476818075182
C      0.275316430492     1.636076062871    -0.082409698736
H      0.358285286352     2.090596329072    -1.065973478544
C     -0.847031180934     2.256685126831     0.652269149772
O     -1.899630354304     2.499075945153     0.005695738520
O     -0.859593352330     2.240227103938     2.055010441390
C     -1.914774620379     2.985163194921     2.678030296955
H     -1.802708044446     2.924401404122     3.782205970145
H     -1.863176166101     4.059085741912     2.386968082106
H     -2.912161808222     2.572517134155     2.404766369272
Pd    -0.099948431218    -0.362971236635    -0.477931810346
C     -0.228276147503    -3.382561092814     0.087883570173
O      0.250890563315    -2.517589774304    -0.803432427004
O     -0.211511102617    -4.624869813776     0.032215031425
C     -0.875404452388    -2.634944370734     1.311377873257
H     -0.847912348218    -3.311560041080     2.173403342380
C     -2.306564194994    -2.241530685926     0.995294869306
H     -2.861554541269    -1.986287084192     1.916860103419
H     -2.326797930747    -1.379195742068     0.300474042245
H     -2.837309862091    -3.095016647977     0.521907417495
N     -0.044489716085    -1.392564785183     1.559713828492
C     -0.020382917218    -0.666659365905     2.765092170550
O      1.022303096735    -0.123248718836     3.168296601615
C     -1.267469567386    -0.522912968078     3.540463023204
H     -1.581502813348    -1.517438229029     3.894556876793
H     -1.052515344208     0.127936686446     4.407309499763
H     -2.024695260946    -0.040803813176     2.901614806243
N     -0.186699361499     0.016585019272    -2.509313541737
C     -0.972514122262     1.002971781545    -3.049798659882
C     -0.908169172233     1.279567383479    -4.398826085757
C     -0.070263961790     0.562334334879    -5.222596550822
C      0.669752173661    -0.448954797330    -4.671855237280
C      0.563969213543    -0.721854125381    -3.291494619009
H     -1.634696694592     1.579559791251    -2.416396970295
H     -1.517972343894     2.069109521557    -4.807997373964
H     -0.012468628132     0.780248831728    -6.285910852391
H      1.315703287705    -1.067620249306    -5.263504447727
O      1.264606450545    -1.758186983088    -2.893186916388
H      0.953939768772    -2.216302350624    -2.000663975000

