# STO-3G

title

0 1
C     -0.086363208808     3.864559761971     0.962855121603
C      0.733279770370     4.220858894250     2.057108547508
C      1.242234485405     5.526857695763     2.180596046013
C      0.936337719433     6.499537767930     1.209266917364
C      0.116029122805     6.156401353348     0.116740486451
C     -0.389839087934     4.849071925573    -0.003910837893
H     -2.258636404979     0.862480081603     1.165528906939
H      0.974321086386     3.475165524159     2.814849947181
H      1.869331612121     5.784992473908     3.031075101871
H      1.326633334708     7.509963555318     1.304928489599
H     -0.130415099404     6.904942177246    -0.632943352316
H     -1.026676518029     4.596315841786    -0.850653999275
C     -0.581902526593     2.435975077156     0.797117292346
H     -0.664838362851     1.961495915938     1.788099662012
H     -1.580242008863     2.461125468451     0.343791795520
C      0.361152255445     1.593206125624    -0.105373478930
H      0.328549602549     1.990374997111    -1.117360615701
C      1.757408249802     1.471734549238     0.368224511839
O      1.963509140803     0.851257556275     1.443703157695
O      2.802209750591     1.759172506598    -0.526180829780
C      4.119525682315     1.407510869047    -0.080616678890
H      4.859858883349     1.688157020657    -0.860197633815
H      4.378776144263     1.948948862726     0.857602489737
H      4.198204691603     0.308989074178     0.090027413105
Pd    -0.301242844139    -0.390472214359    -0.079374044013
C     -1.703609250184    -2.472497649989     1.623898078953
O     -0.846857905466    -2.390269728896     0.595711410747
O     -1.942550530452    -3.490218355928     2.295372129517
C     -2.321377218472    -1.081763902929     1.998997043066
H     -1.668382429847    -0.667736156750     2.780321271381
C     -3.733511984666    -1.170071757334     2.544535019865
H     -4.130471832972    -0.152104345126     2.735191934950
H     -4.392277719311    -1.692616445288     1.820637332486
H     -3.734424330709    -1.742256215047     3.495692106842
N     -2.269723007854    -0.107849098190     0.857878886839
C     -3.049387133103    -0.359464165396    -0.306462718564
O     -3.588056470026    -1.438705313250    -0.565975551756
C     -3.188592146632     0.779730371866    -1.237458711861
H     -3.689190050641     1.603491343727    -0.700356651674
H     -2.190314812063     1.072339462074    -1.594457278099
H     -3.815192699170     0.460755137010    -2.091866918035
N      1.324007365283    -1.055693098547    -1.195185454520
C      1.811415339994    -0.387517853382    -2.289943571702
C      2.940442121413    -0.839581903870    -2.938898312540
C      3.590639105315    -1.972028364906    -2.507208912616
C      3.068609691904    -2.650858286979    -1.441107596494
C      1.894990366709    -2.179427939276    -0.812682142541
H      1.318555253970     0.508379888030    -2.644440282856
H      3.320042163325    -0.292730757671    -3.786587434827
H      4.483837226159    -2.329825600700    -3.012652377445
H      3.503478081630    -3.562262531205    -1.079968521606
O      1.448581755770    -2.963460179425     0.130667143305
H      0.423529330061    -2.828279542838     0.444595219718

