# STO-3G

title

0 1
C     -1.042331597826     0.285273741286     1.405496577257
C     -2.447580452026     0.307449941989     1.515949795577
C     -3.073668162489    -0.269370357088     2.638574684648
C     -2.297098856759    -0.865309056480     3.652644974660
C     -0.891784711324    -0.879749797375     3.546665570452
C     -0.265513137037    -0.304799684556     2.422918737708
H     -0.563105310937     0.709539367670     0.526377505972
H     -3.037962293432     0.774722571000     0.732152594361
H     -4.158106957458    -0.253958229573     2.721022417176
H     -2.782015122522    -1.310332632089     4.518838785900
H     -0.291081995997    -1.332173753056     4.332764259248
H      0.819986233659    -0.309739792056     2.344308081724
C      2.985779243874    -0.638529159213    -2.022310027124
H      2.951630393034    -0.151133504609    -3.001965862625
H      4.028876969080    -0.714090118409    -1.698350201782
C      2.057304379546     0.025763931730    -1.011763649392
H      1.840582493991    -0.664478743493    -0.192366013757
C      2.470375250604     1.308668126090    -0.406514255938
O      3.316514533555     2.040477161171    -0.986282246550
O      1.851722703694     1.712083166577     0.786997441280
C      2.152643890700     3.040428062885     1.235546746085
H      1.601848189281     3.242324641706     2.179933043343
H      3.242170918009     3.155263485290     1.435877054113
H      1.831112210833     3.794188533987     0.480778217408
Pd     0.204624812488     0.012581392696    -1.941116429223
C     -2.139303937162    -1.699279015148    -2.510128983386
O     -1.803397012001    -0.404904064526    -2.554401545993
O     -3.242199481481    -2.178642892186    -2.833311616052
C     -1.016228774053    -2.653785136215    -1.962826077400
H     -1.094169779998    -3.567257416588    -2.567530839442
C     -1.284172507816    -3.009795669577    -0.514927608865
H     -0.519536278797    -3.721092251574    -0.144262979164
H     -1.244812301026    -2.097473703700     0.110737152314
H     -2.286838889352    -3.475791633552    -0.412118018391
N      0.330160432493    -2.027413942652    -2.013908677754
C      1.443884515483    -2.638500379212    -2.253315373114
O      2.663796709961    -2.077796769265    -2.249264526188
C      1.490283394980    -4.081114809462    -2.570031616912
H      1.050109602980    -4.645058493845    -1.732845491307
H      0.945151442424    -4.246416730325    -3.513419661788
H      2.543417286753    -4.393382231265    -2.703574779783
N     -0.103418067863     2.069480475197    -2.113756635807
C      0.863614477815     2.943028626848    -2.539231578846
C      0.639132062611     4.303728054897    -2.491556197775
C     -0.565000980464     4.801059863904    -2.046361847037
C     -1.542199630586     3.909975724683    -1.692318086751
C     -1.284298256406     2.525895481383    -1.778123824253
H      1.808267761282     2.566110705570    -2.910802028207
H      1.418609280748     4.978096704829    -2.807915448042
H     -0.745217802376     5.872073060771    -2.005577173372
H     -2.518824458443     4.227478890154    -1.384961490045
O     -2.318886157352     1.758529159678    -1.508645699105
H     -2.255983547834     0.784712586696    -1.909253789936

