# STO-3G

title

0 1
C     -0.376278646983     1.708333463893    -1.631058405751
C      1.001407292744     1.569199452403    -1.898446095672
C      1.683623964291     2.570940206543    -2.617549559426
C      0.990360504404     3.712530376739    -3.069971709196
C     -0.386401618831     3.853011485128    -2.801237647961
C     -1.068022905101     2.850800242482    -2.080985221919
H     -0.891316197491     0.937750365430    -1.065789658160
H      1.534513976136     0.693266033834    -1.536438394877
H      2.747560857302     2.463440103586    -2.815765857824
H      1.518512009192     4.485609046032    -3.624222392900
H     -0.921634094037     4.734997203746    -3.146891974671
H     -2.126981554358     2.961813901350    -1.856382042159
C     -2.665442178136     1.194813350944     2.313910183893
H     -3.687888455636     1.563967237862     2.433845347677
H     -2.191520226475     1.067102176615     3.292147203326
C     -2.545934885950    -0.092132977275     1.516071084778
H     -2.779349011462    -0.924660767212     2.185312576193
C     -3.355335727693    -0.218818590057     0.281580018286
O     -3.922684373154    -1.321291807843     0.043234053142
O     -3.562289459547     0.895615673201    -0.551951075234
C     -4.407847131131     0.686596507713    -1.690137724863
H     -4.493600495853     1.636233827821    -2.260317003035
H     -3.977268844875    -0.086634823336    -2.363643432099
H     -5.429277527067     0.379155975983    -1.371269686850
Pd    -0.501261082549    -0.422642569016     1.231036987693
C      2.320583573764     0.306556797341     1.320389135713
O      1.554753756449    -0.724245306707     0.995829213995
O      3.562803407552     0.388352507433     1.160947752324
C      1.575778266760     1.519019783466     1.997014478112
H      2.035178647669     2.421555765372     1.571357512635
C      1.799869789887     1.518800326629     3.494630878468
H      1.319932237111     2.408937703245     3.949902894992
H      1.348522024819     0.605750958037     3.934146472453
H      2.886807530922     1.538843589318     3.720401698813
N      0.105253208307     1.456492188098     1.793749216468
C     -0.680671902007     2.472050656695     1.644497221532
O     -2.020931937793     2.386557513519     1.677151774466
C     -0.172427212054     3.832992200057     1.389496680565
H      0.440760625852     4.151297926829     2.246793916881
H      0.405855327207     3.806766307765     0.449418496820
H     -1.029892789692     4.520122786636     1.267315888108
N     -0.806547599681    -2.310614326305     0.512543100601
C     -0.440239471665    -3.349518816149     1.324518297948
C     -0.460733979587    -4.642970449724     0.839738175673
C     -0.828357791817    -4.894444353842    -0.464568796803
C     -1.166719905775    -3.831360642898    -1.264576496362
C     -1.134461997014    -2.527041967255    -0.709727289783
H     -0.149412499620    -3.155948741337     2.350478176840
H     -0.176955011268    -5.456138010461     1.487521449419
H     -0.839219829214    -5.909967209226    -0.851864287878
H     -1.440450730085    -3.979755240749    -2.287656352690
O     -1.411464216848    -1.465324248446    -1.498738706283
H     -1.701110951746    -1.671812198764    -2.404205011521

