# STO-3G

title

0 1
C      0.446920599417     2.096118093207    -1.966557436608
C      0.943062714182     1.524411517161    -3.155311647650
C      0.986607776585     2.287619344544    -4.338624231848
C      0.538624664787     3.624006277011    -4.335002479494
C      0.050342600309     4.199035611400    -3.144842755053
C      0.005057064343     3.434794185940    -1.961841565944
H      0.417082331696     1.499860110907    -1.056457537474
H      1.305357950960     0.499338902672    -3.144218518013
H      1.374028921241     1.845947991601    -5.254089913293
H      0.576173002864     4.213161075051    -5.248633298433
H     -0.286959576490     5.233067285946    -3.138006180204
H     -0.361919517510     3.887763183275    -1.042246268800
C     -2.546645355356     1.631594043519     0.141377816087
H     -3.568229745210     1.941820121938    -0.094075720789
H     -1.892546293854     1.889549623350    -0.696947772732
C     -2.413471220294     0.154648248133     0.482104819798
H     -2.724598783332    -0.359966623622    -0.428884326561
C     -3.163617820975    -0.347311256789     1.641486946517
O     -2.492647183102    -0.895246728873     2.556451876709
O     -4.513528879144    -0.688716193879     1.450129744721
C     -5.171460177903    -1.287589302634     2.575403677060
H     -6.233948581314    -1.486546335157     2.316832655967
H     -4.693992217278    -2.256672248112     2.846052090843
H     -5.150602312594    -0.604901294288     3.455012107719
Pd    -0.410770937490    -0.176863190110     0.765687309697
C      2.183410496289     0.823988724287     1.754210525492
O      1.730010669406    -0.087786412739     0.889459501396
O      3.362293170475     1.197992797711     1.890530907060
C      1.047292044105     1.413189584276     2.669452537362
H      1.429702503153     2.372844766758     3.038489421582
C      0.765751280187     0.505771148964     3.848110366625
H      0.005408334340     0.970266389945     4.508452875365
H      0.367997211681    -0.466352257504     3.488410678991
H      1.694532016983     0.332495488496     4.430874488484
N     -0.222913981067     1.523591469299     1.906661629010
C     -1.066633379137     2.497505525405     1.960796052984
O     -2.214325254308     2.559869251644     1.265168217648
C     -0.855883500371     3.667017720625     2.836157533124
H     -0.762086340089     3.314518421989     3.876087507635
H      0.048104160961     4.197104294475     2.494759124024
H     -1.726973407652     4.344114766586     2.755768321981
N     -0.369419539201    -1.878317747733    -0.422849260187
C     -1.377398617448    -2.806862720577    -0.416673266028
C     -1.366730359864    -3.849243567660    -1.319928785798
C     -0.338291470921    -3.980446187122    -2.225971841062
C      0.679373536110    -3.065691801525    -2.188263949112
C      0.645609276469    -2.022918392573    -1.238028765568
H     -2.193990576063    -2.718864230417     0.289200550991
H     -2.172222160040    -4.565512051012    -1.313692700897
H     -0.326130978135    -4.798564872637    -2.941383024006
H      1.524174375823    -3.126902050550    -2.845407603791
O      1.701289023215    -1.238792313840    -1.261690553778
H      1.873458797594    -0.659698566869    -0.395201003778

