# STO-3G

title

0 1
C     -0.184483438348     1.782763019953    -1.661366953550
C      1.104796736225     2.000436422564    -2.188317382700
C      1.361803040988     3.146679310294    -2.966840317120
C      0.332039657290     4.074622777999    -3.221502332575
C     -0.957553975306     3.856851608021    -2.695862686131
C     -1.214539865121     2.711639452813    -1.916166829678
H     -0.382760972462     0.902271930693    -1.053385677909
H      1.901128389802     1.287326805393    -1.992491264539
H      2.357869689852     3.311911259478    -3.370766169734
H      0.531701507474     4.957083142390    -3.825610661744
H     -1.754746827910     4.570208415122    -2.893010200402
H     -2.207016808059     2.544503381885    -1.503524569240
C     -2.555693816905     1.286682028316     2.589661087331
H     -3.578753804311     1.624569916116     2.773622949119
H     -1.991074362438     1.267749280203     3.528078936187
C     -2.467371433903    -0.075068987912     1.920040275210
H     -2.715171416899    -0.789994987628     2.706755347627
C     -3.302398197122    -0.298578270720     0.724787349344
O     -4.217736827176    -1.162439724850     0.796366917372
O     -2.779884777517     0.095744705945    -0.517001003465
C     -3.444574199889    -0.420063365371    -1.677965299735
H     -2.941213626973    -0.032109057842    -2.590421284573
H     -3.390644611352    -1.532617955847    -1.701165968193
H     -4.509597758587    -0.096801684869    -1.701310843968
Pd    -0.507018140238    -0.398267230324     1.371225431165
C      2.263007502982     0.612231348464     0.887858398573
O      1.503717523207    -0.455053056590     0.625646621606
O      3.389565072147     0.845165089727     0.411066940310
C      1.602806676854     1.600119368200     1.906646834598
H      2.015246559130     2.588237817358     1.666401363048
C      1.979921453677     1.259448401767     3.330878238962
H      1.535590614856     2.005048433246     4.022344901575
H      1.589765260124     0.254205171164     3.590544402576
H      3.083971812903     1.268719975766     3.448562579414
N      0.124889843297     1.526659991943     1.840529232118
C     -0.677057315775     2.527112171833     1.673236031385
O     -2.012635487561     2.420601094119     1.789564056610
C     -0.205536596431     3.881161593856     1.329239632669
H      0.411849688164     4.262362438599     2.158091590367
H      0.358426295243     3.820739675980     0.382059038592
H     -1.081142829200     4.540843263965     1.185339443519
N     -0.917917724219    -2.302797712379     0.587430933881
C     -1.844384125918    -3.164257403244     1.119883117234
C     -2.210921120070    -4.306010749250     0.438777402511
C     -1.651662114462    -4.605038843716    -0.781108548692
C     -0.700054374998    -3.759194964013    -1.279959412524
C     -0.330530533591    -2.610715528004    -0.546825387838
H     -2.297947429557    -2.953475029623     2.078919152458
H     -2.956517928897    -4.958717071390     0.863033466523
H     -1.944878839356    -5.498829940751    -1.325468460961
H     -0.200889223980    -3.950144887012    -2.209296922267
O      0.635573755728    -1.918911958081    -1.101884201675
H      1.135011095797    -1.231091654092    -0.469579157854

