# STO-3G

title

0 1
C     -2.378393097767    -2.961614492348     0.314448242488
C     -1.394445571439    -3.582542094968     1.120994665339
C     -1.780122209089    -4.371743088175     2.222787972089
C     -3.146345581422    -4.549578842825     2.521779325545
C     -4.130807549696    -3.938479367094     1.718918550157
C     -3.746953462949    -3.150285528798     0.615989455928
H     -2.101961330438    -2.401614369204    -0.578050945263
H     -0.340106115276    -3.445458978402     0.893739965758
H     -1.020542060180    -4.846213421905     2.839145178780
H     -3.441394351195    -5.160395702300     3.371971145029
H     -5.184593211596    -4.079211328148     1.947098706772
H     -4.502679434341    -2.694191318614    -0.019376591596
C     -2.060677786533     0.589276067365    -0.623206850453
H     -2.326605916626    -1.268378221431     1.553910643122
H     -2.631526509431     0.533762128020     0.297802744043
C     -1.003292021546     1.495862132640    -0.723424018041
H     -0.745348953537     2.099431499862     0.135514836876
C     -0.398844955496     1.936669852386    -1.993472879953
O     -0.864350193552     1.515883957519    -3.085581769733
O      0.639068535665     2.881755909047    -1.952394655396
C      1.081964372731     3.384981073400    -3.221178064968
H      1.900331723467     4.120215365682    -3.061075197902
H      1.473782221971     2.564377709440    -3.862761541519
H      0.251481959268     3.903032500275    -3.752870923785
Pd    -0.094008213199    -0.503183681961    -0.090203665841
C      2.306137694704    -1.957662826850    -0.651441738439
O      1.496569329782    -1.649392700406     0.395765545705
O      3.383745078285    -2.564793128963    -0.521153870107
C      1.786068486213    -1.446114604957    -2.034659169958
H      2.042967394203    -2.223938169635    -2.764396801717
C      2.477934897396    -0.161645651253    -2.438327401085
H      2.088258437919     0.179318646363    -3.418420119364
H      2.287682961071     0.623328564921    -1.678798441650
H      3.572540928907    -0.328493546190    -2.522104434349
N      0.338272051326    -1.180718594719    -1.931295590564
C     -0.626993724282    -1.585638121287    -2.781944185567
O     -1.870823376615    -1.568178866740    -2.514433096927
C     -0.228555215447    -2.073657265833    -4.123939614629
H      0.394587481766    -1.301890475180    -4.605803043374
H      0.302648297978    -3.032330102798    -4.009866793800
H     -1.141285715943    -2.237140165024    -4.726731632500
N     -0.213896544349     0.081086877154     1.904802009118
C      0.946889975167     0.629179654856     2.384334499581
C      0.988658295179     1.146538400408     3.664011296174
C     -0.121668183777     1.082977357929     4.478329477827
C     -1.254776253926     0.492514685127     3.984783406778
C     -1.246711898960    -0.035779370635     2.676607400252
H      1.818956439159     0.694806294562     1.744106224819
H      1.901470180460     1.587180250880     4.029205061824
H     -0.094552925874     1.477348206586     5.490483146526
H     -2.142995396050     0.372494351186     4.571514575920
O     -2.378743967869    -0.640445492456     2.328653514570
H     -2.431730049430     0.027721494747    -1.479496395816

