# STO-3G

title

0 1
C     -2.227357685835    -3.127928492403     0.291489836449
C     -1.231172241354    -3.564687020569     1.196351423784
C     -1.598611533798    -4.249762999037     2.371630527793
C     -2.957408663609    -4.503939869227     2.646299141311
C     -3.953180505098    -4.073483788218     1.746025544317
C     -3.588056311258    -3.390426762216     0.569334653461
H     -1.958528557026    -2.647139606887    -0.645726437133
H     -0.182842293605    -3.363915507538     0.990728596916
H     -0.830137346988    -4.582341824164     3.064970244943
H     -3.238394626021    -5.032708890502     3.554247824353
H     -5.001214650688    -4.271397011475     1.957709037964
H     -4.351296996449    -3.072162219401    -0.136901809265
C     -2.145616030006     0.397650842759    -0.865655698027
H     -2.277097926613    -1.235474927083     1.314181915663
H     -2.676748467656    -0.467960566858    -1.245015954620
C     -1.165537142150     0.969958876309    -1.674876559626
H     -0.958675351983     0.510765132060    -2.626645540410
C     -0.543585289287     2.282262682824    -1.438365980983
O     -0.881663195877     2.947359377837    -0.424692436164
O      0.505450977913     2.696349321290    -2.274303994467
C      1.105864719421     3.958066335784    -1.947756270338
H      1.914930608253     4.181802965587    -2.676664500139
H      0.355863214193     4.780061392775    -2.000461469329
H      1.554850156801     3.932894529205    -0.928564234406
Pd    -0.107116651719    -0.547367140752    -0.322366122143
C      2.382107455516    -1.951872168165    -0.551448923090
O      1.550395643585    -1.448116374291     0.395832445453
O      3.478484228128    -2.476302010551    -0.285005749365
C      1.862561255771    -1.781698294604    -2.013673695894
H      2.166284004616    -2.686238227472    -2.556588023458
C      2.497889284368    -0.579672912157    -2.682630918728
H      2.136975380077    -0.494959841766    -3.727705636352
H      2.219315254327     0.344757088143    -2.135926348039
H      3.603358271973    -0.684174044739    -2.688403882521
N      0.405385149150    -1.561902936415    -1.987426973086
C     -0.523888428480    -2.064693014696    -2.818969709730
O     -1.770362314257    -1.830080101161    -2.711824660473
C     -0.082933974820    -2.942213666989    -3.929602811280
H      0.636935106541    -2.390091708194    -4.555537893701
H      0.358001655045    -3.855190962629    -3.495779437396
H     -0.966312668113    -3.218361038977    -4.535114848429
N     -0.332533236433     0.357872105679     1.526724753514
C      0.725125790220     1.134228300084     1.921066307709
C      0.649875615394     1.857626427703     3.094936088058
C     -0.476098481669     1.787128378349     3.886696010837
C     -1.504967403319     0.977777038833     3.481626592032
C     -1.376788426117     0.245282192105     2.283984969751
H      1.607120166861     1.204010495212     1.295028954979
H      1.481425100048     2.474070724048     3.392791701104
H     -0.540495746062     2.347667487255     4.815323464678
H     -2.393153084725     0.843980013880     4.065683530693
O     -2.411733699098    -0.547950534720     2.022191711510
H     -2.513260286423     0.892749593118     0.033905252747

