# STO-3G

title

0 1
C      0.035178294072     3.042037735066    -0.826098395478
C      1.377729618686     3.463913067430    -0.715854003091
C      2.055810217813     4.004861883946    -1.823384528660
C      1.391764665787     4.157857309872    -3.056330424854
C      0.049622657989     3.752177447099    -3.173163710973
C     -0.617628005982     3.190023850568    -2.068338100389
H     -0.866737400376    -1.205566972569     2.143650639703
H      1.907505195757     3.371605491396     0.231349939241
H      3.093973613440     4.313877500751    -1.720744060270
H      1.913234830689     4.590488501825    -3.907006757697
H     -0.475256242043     3.861658409147    -4.118875161674
H     -1.653051806868     2.873686897108    -2.171994944618
C     -0.733452838342     2.545178316291     0.388997870961
H     -0.898208424124     3.404448192778     1.055658644972
H     -1.733163306909     2.213152544679     0.087955706268
C     -0.053841143715     1.416179622085     1.208783967703
H      1.019436156927     1.411931489931     1.037425658015
C     -0.289734842667     1.368612472459     2.684229026615
O     -1.250096757416     2.023394610391     3.182503379292
O      0.714769197095     0.829667952518     3.513615973048
C      0.422181646175     0.818030750130     4.916990098239
H      1.265875148032     0.346401644239     5.463896956360
H      0.291995385907     1.854874607815     5.301133468401
H     -0.501251538805     0.229754786296     5.119904069843
Pd    -0.037921416527     0.026220991178    -2.403229081697
C     -1.610116765258    -0.328189408618     0.049129799223
O     -0.387228881224     0.061968403508     0.603968655300
O     -1.767429120819    -0.332675843955    -1.189602105047
C     -2.621313417542    -0.926070800912     1.030134413815
H     -3.131875713446    -1.762556505269     0.536523351984
C     -3.672999138395     0.081449800842     1.459481930113
H     -4.447209414106    -0.420011514246     2.075444178405
H     -3.200775795617     0.873801129259     2.072994532494
H     -4.160780205400     0.535096172689     0.573008905849
N     -1.865351081413    -1.378313312900     2.203285154673
C     -2.405222626798    -2.246427093587     3.102247886949
O     -3.590198893364    -2.648113474830     3.071153196471
C     -1.515650787638    -2.714744913266     4.188388270665
H     -1.980626289898    -2.418595205874     5.142794083033
H     -1.455719788743    -3.812261713478     4.112902344905
H     -0.511430764245    -2.264456336675     4.094004671747
N      1.959805377245     0.388912242724    -2.885929113670
C      2.448326677904     0.772128018484    -4.107192834673
C      3.786149585665     1.084553243569    -4.249153252718
C      4.639894306664     1.021390869711    -3.166693747971
C      4.124448194891     0.638791554841    -1.955873026160
C      2.754757317640     0.333672489445    -1.862428614790
H      1.783688503204     0.828169604493    -4.961433779516
H      4.162957510492     1.386611465705    -5.212974049875
H      5.692434884143     1.272043209460    -3.270393594323
H      4.722642612976     0.580954573344    -1.067671035586
O      2.321332238808     0.005251406326    -0.634245266738
H      1.322164537265    -0.181267021100    -0.697924822891

