# STO-3G

title

0 1
C      2.371107875843    -1.850809237510     0.026724127012
C      3.008586648471    -2.412658556315     1.150856947787
C      4.379051382353    -2.735492681237     1.103912346140
C      5.118868416890    -2.497254761947    -0.072890299782
C      4.480696825562    -1.947839848004    -1.203187498894
C      3.108767874277    -1.627348758923    -1.152470487138
H      1.318130826801    -1.579190669749     0.078241310774
H      2.436200083270    -2.605671994675     2.055507036891
H      4.863815903850    -3.176650536004     1.972112834624
H      6.176594692790    -2.747122225519    -0.110888606763
H      5.045706186842    -1.776990416867    -2.116777173016
H      2.619495334917    -1.210685542271    -2.029921839835
C      0.375337506055     1.122031589516    -1.101164644504
H     -0.476299789954     1.531847302876    -1.632979502725
H      0.890515239967     0.316305409707    -1.612634061272
C      0.957283468388     1.752936468663     0.011836264605
H      1.938852467583     1.458191143013     0.336986013144
C      0.401763086940     2.974571600514     0.614628268817
O     -0.847672838173     3.131923044827     0.550528603044
O      1.171701314049     3.679359102578     1.550447808404
C      0.522088380608     4.777358012594     2.206109188833
H      1.239289368401     5.262717189443     2.903708012765
H      0.188761032867     5.540675333668     1.467013837596
H     -0.351722078394     4.425663237680     2.800169382524
Pd    -0.473193832891     0.166571370378     0.701001555686
C      4.999885887712     0.885853058658     1.511158018043
O      3.837318395894     1.060594984367     1.306374639216
O      6.161790402244     0.730462707404     1.724410325231
C     -1.494193447641    -2.558914054234    -1.849202925754
H     -1.032425672076    -2.908454639860    -2.772589648425
C     -2.053268455975    -3.585237078605    -0.897810467648
H     -1.394441880431    -3.665605626354    -0.010092990624
H     -3.075612553509    -3.292199721376    -0.587663647639
H     -2.100907182647    -4.570656139805    -1.402850430617
N     -1.580334359841    -1.302576516018    -1.575921946735
C     -2.074429642019    -0.653033781855    -0.439124971025
O     -2.174440935904    -1.198160081860     0.783782973680
C     -3.018575978974     0.432773666711    -0.734270999716
H     -2.938761635315     0.714644163879    -1.801415222702
H     -4.035435876825     0.050848801668    -0.534332922727
H     -2.805580153070     1.301594009968    -0.086320195481
N      0.458118618878    -0.278425688380     2.667525887681
C      1.446427991880     0.463623244539     3.263002060207
C      2.055299513690     0.007079217386     4.413880806651
C      1.691914119911    -1.197139722868     4.971691456128
C      0.701791327929    -1.920553276843     4.360988057087
C      0.101756915905    -1.418228297042     3.187605342975
H      1.741653577368     1.415173030244     2.842320370089
H      2.843799721920     0.593680836480     4.858264580833
H      2.180459648818    -1.564942639144     5.870157548154
H      0.375065558150    -2.868501257321     4.740149438610
O     -0.814160820107    -2.226664108022     2.677732935973
H     -1.336291090667    -1.880441819231     1.869967873716

