# STO-3G

title

0 1
C     -0.649467025302     2.579860824334    -1.750255976459
C      0.159640332198     2.011623356919    -2.754970122387
C     -0.357116303794     1.819967735357    -4.051701175928
C     -1.681970333546     2.200979214379    -4.347448927911
C     -2.487046926660     2.779836566948    -3.345804439469
C     -1.970183957152     2.969963774875    -2.048729963193
H     -0.258845174802     2.708561191460    -0.743923948452
H      1.179202865500     1.709152605454    -2.525091044410
H      0.269398865722     1.379813536158    -4.824911250904
H     -2.078864747483     2.055815860906    -5.349976745966
H     -3.506788272911     3.082784581902    -3.574031011578
H     -2.592475550423     3.416743071340    -1.275927761102
C     -2.290572730172     0.528116900449     0.821099794722
H     -2.655735070248     1.557174311896     0.850645048071
H      0.923287731778     0.526584346679     2.895487029769
C     -3.042312026261    -0.578040362198     1.001128333149
H     -2.580414019829    -1.558668021507     0.983165484725
C     -4.495304154864    -0.571857967656     1.250242439042
O     -5.135859496029     0.514672907704     1.242757761315
O     -5.148668159048    -1.802211811660     1.443044236043
C     -6.563759832277    -1.732135410302     1.668326700307
H     -6.965656369775    -2.758589506001     1.809023977632
H     -6.789494729057    -1.141317882936     2.585070836877
H     -7.081025585342    -1.272422250131     0.795711198865
Pd    -0.333426596245     0.486688604408     0.662776961164
C      3.072865943596     0.627529603809     1.531075707726
O      1.955213239334     0.150896749447     0.963677613176
O      4.228379308213     0.547630461768     1.073350848353
C      2.823445823399     1.322632016129     2.930322678302
H      3.308533542735     2.303719113291     2.904100792797
C      3.393551697690     0.525441883793     4.078795107150
H      3.194930489844     1.056515352912     5.032511498567
H      2.908094030572    -0.471484946808     4.119354595378
H      4.488776472445     0.398003303436     3.950834774110
N      1.365298036673     1.424774361605     3.122921425054
C      0.610284128227     2.437497515426     2.660137818473
O     -0.403982487059     2.236635052900     1.915355732000
C      0.940423704379     3.820426852720     3.038069669349
H      1.733507467899     3.822912929807     3.805192854344
H      1.255498345993     4.357678316371     2.128193404859
H      0.026959791140     4.280327695053     3.455619101448
N     -0.408597652159    -0.932209798736    -0.848009137480
C     -1.410390613427    -0.861794516406    -1.784249589614
C     -1.515313557191    -1.829669351517    -2.761855437590
C     -0.616250946269    -2.869364940670    -2.818464833744
C      0.398127623289    -2.899790116929    -1.900114372705
C      0.491351443645    -1.881089168934    -0.927546417237
H     -2.127585597965    -0.050887820668    -1.762529776161
H     -2.311276487718    -1.763512190021    -3.485182813433
H     -0.697703733568    -3.635426561927    -3.584933359763
H      1.151194239974    -3.662378842722    -1.909682787679
O      1.542832038245    -1.970030376913    -0.151994821536
H      1.819434481643    -1.069365766768     0.355152256696

