# STO-3G

title

0 1
C     -2.479901226910    -2.715501492228    -1.681360885894
C     -2.410047724279    -4.071662185521    -1.297055015085
C     -3.554637256972    -4.740781321751    -0.818849337056
C     -4.783547693411    -4.056801711430    -0.723741564073
C     -4.866397871413    -2.707146788045    -1.121551564657
C     -3.718288065468    -2.043069059234    -1.601045815874
H     -1.586631585018    -2.209914158842    -2.044312413315
H     -1.467271033065    -4.607553941608    -1.385080958751
H     -3.491842671486    -5.787528293281    -0.529345429653
H     -5.668339465589    -4.572768749040    -0.357612778454
H     -5.817266444832    -2.181030006196    -1.072121306737
H     -3.804005737083    -1.013653235711    -1.942494550533
C     -0.669055653657    -2.015026562313     1.212636142936
H     -0.586604935102    -1.661528850489     2.237526503762
H     -1.664936019367    -2.190064074971     0.816038415354
C      0.419300906510    -2.448903319185     0.487874820862
H      0.277045033524    -2.860780680193    -0.500246911073
C      1.797601242855    -2.504691299334     1.002872535874
O      2.067107993397    -1.994966391803     2.124731351491
O      2.778201045852    -3.167924980109     0.245384064157
C      4.118514912861    -3.090983149122     0.748554546687
H      4.799014233406    -3.639279849658     0.062456733258
H      4.459563430860    -2.032259917900     0.799928003238
H      4.190542248295    -3.555249166430     1.758019206026
Pd    -0.184835645447    -0.116529508798    -0.065702623865
C     -2.827148670979     1.288166010797    -0.554652754985
O     -2.267147921409     0.318692839590     0.328050555761
O     -4.034787847309     1.499004228305    -0.560935334371
C     -1.718038468324     1.927447060087    -1.413274819363
H     -2.038268453771     2.969357409696    -1.554058661439
C     -1.641816884560     1.282119986183    -2.779714113392
H     -0.859800930456     1.787807062127    -3.383356165278
H     -1.361409483563     0.214629736628    -2.682921210155
H     -2.615463859496     1.361861091071    -3.306790125802
N     -0.423627156490     1.767337077007    -0.758781266049
C      0.398629798425     2.745025322071    -0.304218893032
O      1.385587291371     2.535669477053     0.448867974353
C      0.152344500493     4.138760857806    -0.753799134627
H      0.139766132592     4.149030449551    -1.856923230040
H     -0.796331605622     4.488853208915    -0.317247515608
H      0.978976864833     4.776341394942    -0.388633103116
N      1.591173809657    -0.363891816664    -0.989319146424
C      2.767389648392     0.219126120416    -0.608816688696
C      3.861454528050     0.157081175413    -1.446616259263
C      3.779623948725    -0.473948738932    -2.667810523777
C      2.594232433043    -1.054118222289    -3.034885439774
C      1.471509921611    -0.991795235018    -2.171110648783
H      2.867703763015     0.658015832505     0.374851218187
H      4.786866434342     0.609234478212    -1.133165709294
H      4.643447908036    -0.519577524565    -3.324926326481
H      2.474914176566    -1.568477379846    -3.965542838104
O      0.400297682762    -1.562173835136    -2.555050284868
H     -2.941770646914    -0.212809564650     0.801400713634

