# STO-3G

title

0 1
C      0.293410733558     3.595842926174     0.915998439762
C      1.470880027343     4.101225426485     0.274529930826
C      1.364032310215     5.097289766927    -0.736974479834
C      0.109076848933     5.594787280200    -1.103651277483
C     -1.062371722765     5.111497184813    -0.462448972558
C     -0.974160263599     4.123731743620     0.522154915499
H     -4.326250666330    -0.054700977650     0.205356360828
H      2.455312363755     3.836313559806     0.656624474453
H      2.267560187939     5.475206186347    -1.207797337837
H      0.029440511937     6.359061506554    -1.872554037533
H     -2.033473806364     5.512650247967    -0.741518302596
H     -1.859541199800     3.748215231659     1.024577453213
C      0.409876402019     2.581846285311     2.069952820927
H      1.085533807968     2.964322256233     2.842714186740
H     -0.576790945423     2.404035759708     2.499141143095
C      0.913801541764     1.273457205557     1.429677215126
H      0.178211735127     0.479829819061     1.376806505755
C      2.278487947565     0.757293277952     1.663103506553
O      3.220705718947     1.574810719415     1.831125101432
O      2.525951759739    -0.606532274752     1.438982229042
C      3.903027661485    -1.007088007148     1.448690537739
H      3.968804927546    -2.099700728023     1.256425609037
H      4.472002651692    -0.482366568886     0.647574142301
H      4.371076120805    -0.796313881314     2.436846964675
Pd     0.940725223247     1.925591723273    -0.528194993193
C     -1.914177753497    -1.235977752020    -0.022825880454
O     -0.603874942799    -1.192618481382     0.257059106555
O     -2.426666061689    -1.330443768876    -1.160391025161
C     -2.784588389052    -1.047295483542     1.247082211229
H     -2.142377706272    -0.791060436571     2.090761150525
C     -3.611140616560    -2.268531257406     1.582093120329
H     -4.216878280027    -2.065646086530     2.489265493092
H     -4.296010312241    -2.493835204747     0.738220103378
H     -2.949594943528    -3.138919194161     1.768818935164
N     -3.698926932002     0.068238062106     0.992666809309
C     -3.497776602227     1.305722177976     1.504072687584
O     -2.563208036946     1.632924874869     2.278964544463
C     -4.495678165937     2.319073228659     1.100930339493
H     -5.491141196914     1.943542173038     1.393226623697
H     -4.274134650138     3.265581388432     1.622665188283
H     -4.433934963202     2.447882797613     0.006442847886
N      3.067172267490     0.439738685578    -1.901142427821
C      4.250551268498     0.037446415422    -2.458907552919
C      4.420456076441    -1.279940884249    -2.846165385470
C      3.397855923310    -2.193631115357    -2.690931173374
C      2.220139682633    -1.764125704961    -2.135926685921
C      2.106353853715    -0.408486638023    -1.748276690416
H      5.055253891260     0.751786611877    -2.587811725363
H      5.356189672837    -1.587339871376    -3.283253208638
H      3.522100836182    -3.227186227270    -3.003150106142
H      1.384311835816    -2.419714175018    -1.996354281084
O      0.937668351664    -0.049917204735    -1.211383376122
H      0.076718307533    -0.855903949937    -0.504156249310

