# STO-3G

title

0 1
C     -1.708009957674    -2.629033923790    -0.727583938369
C     -2.423215370451    -2.458722564169     0.502299517543
C     -2.463343973656    -3.531119678774     1.440479963016
C     -1.841225764711    -4.746525088796     1.145544576988
C     -1.130377499524    -4.916808897964    -0.077448713561
C     -1.056650558573    -3.871816120167    -0.998949967180
H     -1.789253366325    -1.875114464879    -1.507003259081
H     -3.029068039212    -1.567494471944     0.661886012715
H     -3.017169115725    -3.401011745127     2.366088789488
H     -1.909957562718    -5.575521662369     1.845943427690
H     -0.657845694875    -5.870353707202    -0.299091240545
H     -0.521600614864    -3.990319847561    -1.937530430438
C      0.809990630168     1.128443080186    -2.403636292680
H     -0.130370940120     0.584799429667    -2.380411533470
H      0.743650307968     2.182146310834    -2.658405348665
C      1.990122871944     0.563566876306    -2.060624700902
H      2.898089826648     1.149343916434    -2.043622724986
C      2.159759089952    -0.845468770140    -1.672141395154
O      1.150638540905    -1.597714139536    -1.571253719717
O      3.462302881229    -1.337490606086    -1.475804195090
C      3.567703274991    -2.735491089935    -1.172784604753
H      4.637667491453    -3.003333404127    -1.039414300508
H      3.032496814904    -2.978527528267    -0.229177909161
H      3.153304722193    -3.352581530980    -2.001611306255
Pd    -0.388851434148    -1.165466437923     0.467158471432
C     -2.327300436851     1.053796474481     0.216593608899
O     -1.448360021234     0.274676967452    -0.463892322167
O     -3.312379694160     0.630225675370     0.859846730197
C     -1.959661920510     2.554294907005     0.100538787467
H     -2.352387190159     3.086803620476     0.972668628071
C     -2.523254531221     3.186258191396    -1.154912405974
H     -2.247612619861     4.261406258098    -1.183329197960
H     -2.104473876903     2.682557678823    -2.049677195704
H     -3.629634104386     3.097712374265    -1.162428817075
N     -0.501712063354     2.654848234292     0.064031934764
C      0.172053313025     3.681155904888     0.631077685777
O     -0.353300239699     4.703380016142     1.135926207540
C      1.642232058479     3.536881106364     0.617679291182
H      1.903287478070     2.617405103610     1.173090590816
H      1.976675093798     3.472037227820    -0.430284104261
H      2.090839707888     4.418492554599     1.110705981760
N      1.034069114000    -2.148671828493     1.573384004621
C      1.415915978324    -3.333487761178     2.126217100883
C      2.595949046998    -3.391916695976     2.848507162850
C      3.378091592520    -2.262385425732     3.024248907648
C      2.965978942804    -1.078099342798     2.463100226146
C      1.760362041980    -1.062577096690     1.734852403033
H      0.809961479557    -4.219927824671     1.992369407955
H      2.900368300416    -4.328658304675     3.285190905676
H      4.301101343387    -2.311745115408     3.595619695484
H      3.518325077855    -0.166260908007     2.555685585815
O      1.323002568780     0.034860316460     1.171069636798
H     -0.017968006511     1.827810413098    -0.271851314041

