# STO-3G

title

0 1
C     -1.753288317739    -2.361768510285    -0.770545546264
C     -2.484446952298    -2.320538623980     0.462618932042
C     -2.503835497870    -3.474671432208     1.302478226244
C     -1.844531567159    -4.640484867860     0.908851717524
C     -1.122971184422    -4.681630615542    -0.319413939507
C     -1.067026035831    -3.557013161522    -1.143464202861
H     -1.844021301304    -1.540472141211    -1.474571828325
H     -3.133292186642    -1.475346768144     0.685470758609
H     -3.069706146776    -3.442860098236     2.229624825348
H     -1.893994737899    -5.529663992453     1.532916230626
H     -0.625635235420    -5.599995074316    -0.622608306521
H     -0.522449848346    -3.586629150111    -2.084645274100
C      0.500957608941     0.171690299891    -2.386388589628
H      0.078491098442    -0.537574224122    -3.095631202298
H     -0.045956289686     1.100378236891    -2.263306634534
C      1.604415329890    -0.093263458502    -1.650148037576
H      1.963910735247     0.626298910830    -0.927650322858
C      2.363997704629    -1.354253311652    -1.691557499063
O      1.955484015945    -2.314864254999    -2.399986048367
O      3.503268111772    -1.478203332173    -0.878255371834
C      4.123027955847    -2.771022263257    -0.858194535053
H      4.997795406038    -2.747476275991    -0.173599875141
H      3.412863468057    -3.542507681248    -0.483767009986
H      4.479839402649    -3.055322637522    -1.873963971056
Pd    -0.534452144754    -0.999415587659     0.648971552771
C     -2.407785676844     1.302775312750     0.516918389637
O     -1.609860238060     0.467880049082    -0.194987749424
O     -3.350834644003     0.940284751676     1.249929815404
C     -1.993842900181     2.781697489894     0.293553978226
H     -2.241054545928     3.361352824420     1.189379372358
C     -2.694332458063     3.398420994918    -0.898417765988
H     -2.387140891833     4.460694573682    -0.999268772728
H     -2.413325241251     2.854007852469    -1.822753552743
H     -3.794671606925     3.353963529472    -0.759666385527
N     -0.548846553388     2.802986115959     0.054396462723
C      0.238357321088     3.842691591104     0.416373395025
O     -0.172232219660     4.946731044658     0.845823951347
C      1.688242883713     3.600765194568     0.264530382076
H      1.963637158913     2.740973123108     0.902978612506
H      1.898039047303     3.395816764134    -0.798304164804
H      2.234093461656     4.504255526292     0.593084704137
N      0.980827753630    -2.056354553985     1.534788282860
C      1.437817100225    -3.287458069953     1.899822031367
C      2.642232854431    -3.390096760858     2.575373009703
C      3.378321957898    -2.260117367056     2.890867665635
C      2.893325717857    -1.029726177792     2.521021732218
C      1.667202340384    -0.970775162982     1.831242572298
H      0.869417690578    -4.175587868082     1.657719246432
H      3.003428753743    -4.363300245054     2.863573031879
H      4.321713519199    -2.344842225912     3.423326800407
H      3.407286640753    -0.114554210372     2.728867136635
O      1.154616707508     0.170941865719     1.447908421449
H     -0.154122328963     1.902440713971    -0.192380358539

