# STO-3G

title

0 1
C     -1.546730579471    -2.001378590360    -0.598658955892
C     -2.316821764690    -2.088653950134     0.607378653817
C     -2.498146429904    -3.362965331272     1.226907505227
C     -1.960652088294    -4.511820358724     0.644546733923
C     -1.197663790630    -4.420320900640    -0.555224045475
C     -0.980107422799    -3.182420130639    -1.162419527710
H     -1.496089185120    -1.066913673426    -1.147668516329
H     -2.888495218149    -1.231426152747     0.961782319327
H     -3.095792815553    -3.427518150678     2.132320090425
H     -2.137087532368    -5.484944329775     1.096706086507
H     -0.795095666515    -5.323411268206    -1.008512232558
H     -0.402403703773    -3.109845643655    -2.081038081733
C      0.651569332563     0.360282566735    -2.187597146638
H      0.434121824321    -0.171893153138    -3.111623453064
H      0.029310666143     1.223858450360    -1.974704560508
C      1.616827475592    -0.031677562876    -1.323517263785
H      1.790979951135     0.515726075700    -0.406003999636
C      2.465885040786    -1.223184256089    -1.499364650836
O      2.233822619004    -2.028127874723    -2.442768879230
O      3.478374682783    -1.474023440739    -0.558635161571
C      4.148362081626    -2.736098966380    -0.675928849455
H      4.914376800973    -2.818819892453     0.124649096698
H      3.428292150671    -3.576287802545    -0.550947356839
H      4.659315969001    -2.824497803154    -1.661269854855
Pd    -0.262575682406    -1.047205931242     1.125525007217
C     -2.107184899148     1.376590643584     0.857715272694
O     -1.017994045460     0.682706281748     0.494416091049
O     -3.081795052449     0.933826700403     1.506023996385
C     -2.023516723563     2.830702252072     0.315879293685
H     -2.310008426406     3.519292147946     1.120441669480
C     -2.963729496096     3.038914865687    -0.854426650909
H     -2.931659066762     4.100217550250    -1.178585782500
H     -2.656735139437     2.395803051931    -1.703830627216
H     -4.004629618446     2.790855466370    -0.558364735113
N     -0.650215502075     3.078940141949    -0.127512184649
C     -0.132241461852     4.313895940099    -0.317371301153
O     -0.773060718065     5.389319387137    -0.247920509718
C      1.309408417090     4.332329709492    -0.644362832361
H      1.865754245802     3.884534113731     0.197871071243
H      1.464614245537     3.762322092330    -1.576086191227
H      1.625605826047     5.382503817454    -0.787055396134
N      1.082232385620    -2.442489887479     1.795467223034
C      1.364788079340    -3.765329667273     1.962853882683
C      2.556164880496    -4.133962991484     2.565455814644
C      3.454331944354    -3.177230725926     3.008126539964
C      3.147500165708    -1.850787428013     2.832207902786
C      1.929366369865    -1.519607661637     2.207338475954
H      0.667188935749    -4.520394360222     1.626469509872
H      2.777463346485    -5.179847553156     2.698688191962
H      4.385302010110    -3.470391422433     3.485540213010
H      3.791819950890    -1.054398828704     3.141826536303
O      1.574237483054    -0.273522386550     2.014585928819
H     -0.067629852604     2.248033491249    -0.100390084969

