# STO-3G

title

0 1
C      1.169864902012     0.244593618994     2.797114989551
C      1.903560750339    -0.922429427716     2.403271417909
C      2.057139873234    -1.995519533382     3.332119721386
C      1.524370971166    -1.893644007857     4.618307634441
C      0.796887075397    -0.732137322494     5.006586062543
C      0.612346337151     0.320326064543     4.107957156083
H      1.164474289921     1.118428335961     2.152622753373
H      2.462975450971    -0.936742797827     1.468804194817
H      2.628009026293    -2.871142154800     3.034883392614
H      1.678335995251    -2.696272033673     5.335738495139
H      0.398631173437    -0.659286418128     6.015955786250
H      0.070495909412     1.214052470642     4.405593802219
C     -1.585654251675     2.453707347689     0.681424314115
H     -1.665916345494     3.514636026172     0.906630654597
H     -0.655661874062     1.966643995193     0.954631403440
C     -2.558726674207     1.749391194112     0.053615796274
H     -2.417049365237     0.695971990804    -0.151668018286
C     -3.840245869800     2.315991009036    -0.400208248914
O     -4.051202119112     3.554542753619    -0.290015484331
O     -4.735975126815     1.485220184648    -1.094904015877
C     -5.934753345005     2.112458619642    -1.571664398842
H     -6.561157931056     1.358187841806    -2.095054444127
H     -6.526681934290     2.529612771521    -0.725604316144
H     -5.695833523148     2.926310856047    -2.293406971665
Pd    -0.157977748979    -0.924360827556     1.253720897964
C      1.642944654859     0.120946568937    -0.916783414049
O      0.628019095509     0.354175376562    -0.062902969923
O      2.511859671521    -0.770074481650    -0.781226453472
C      1.628009120627     1.132366956445    -2.088746646724
H      1.835938070987     0.588144708780    -3.017673414497
C      2.686879954599     2.202620582994    -1.914355016024
H      2.691917985182     2.869665726276    -2.802086786729
H      2.464273968606     2.808951551290    -1.013033168028
H      3.689889234419     1.737511531100    -1.813125977101
N      0.317485023132     1.775039304192    -2.158199857097
C     -0.176677061272     2.280708078171    -3.310830120090
O      0.446444022453     2.340414959534    -4.399036725845
C     -1.564189396524     2.781546053810    -3.227033139411
H     -2.223776026739     1.933625735002    -2.972900912066
H     -1.608758421516     3.571221194131    -2.457038935841
H     -1.850760255281     3.196578782692    -4.210894225985
N     -1.499411477810    -2.121506112475     2.249048171125
C     -1.795558754850    -2.802964332762     3.392108341043
C     -2.995992769276    -3.487560533530     3.481858702889
C     -3.894010817659    -3.489035705492     2.427480916338
C     -3.572561944007    -2.797858855121     1.285191504197
C     -2.340059290216    -2.119423224365     1.235500356392
H     -1.101052135984    -2.807317347282     4.221664268380
H     -3.229996752699    -4.025385545118     4.385580158597
H     -4.835154206575    -4.027130996969     2.502036288640
H     -4.213668608829    -2.752440361883     0.428767453677
O     -1.977984504588    -1.439212525697     0.176323796489
H     -0.249640162410     1.696012255870    -1.320935262959

