# STO-3G

title

0 1
C      1.186025370980     2.894424336623    -1.564991785794
C      2.529154788141     2.866972564070    -1.999461944111
C      2.997899978426     3.835497223987    -2.911845100240
C      2.129070967137     4.829277595631    -3.402660405602
C      0.787506012438     4.852437295577    -2.976442609366
C      0.314155134997     3.890497142308    -2.058782057410
H      0.857976722976    -0.037053656509     2.309951373546
H      3.211717151300     2.098134412686    -1.640703622465
H      4.036280821189     3.808650029764    -3.236364308908
H      2.492770320461     5.574857167399    -4.105783130467
H      0.108718194606     5.616207049223    -3.351028706472
H     -0.729833608565     3.923031127493    -1.749450490784
C      1.397645171019     2.631819373084     1.447510105148
H      1.600108315495     1.918791573268     2.242428365853
H      2.254719469049     3.085551496266     0.961011506889
C      0.117157632309     3.127335976119     1.211112988932
H     -0.019468046445     3.934379756530     0.509828019442
C     -1.068209541852     2.833514970469     2.033812651466
O     -2.202691418664     3.050345408942     1.532546027777
O     -0.922504800020     2.275902934631     3.310876041474
C     -2.131736479696     2.009236144141     4.034273262927
H     -1.873189864913     1.570859325113     5.023146909208
H     -2.706898899598     2.946027318670     4.207254345263
H     -2.766778246953     1.272617575506     3.492859755599
Pd     0.539232122484     1.463949278167    -0.319956421723
C      0.449881140469    -0.505715965414     4.207839570976
O      1.235751868912     0.088259601877     3.257771384574
O      0.662195358869    -0.364052540098     5.420390410345
C     -0.721284381177    -1.433177293176     3.706981915836
H     -1.370010599243    -1.520961178140     4.583813844111
C     -0.204096886748    -2.821664881110     3.376983606157
H     -1.056434159864    -3.492083014799     3.140281534724
H      0.467798871761    -2.766241486836     2.496258254049
H      0.354329977862    -3.239768618944     4.240389820670
N     -1.579993105215    -1.022892640023     2.586147623494
C     -1.235381324608    -0.506360191379     1.473258624361
O      0.042930304822    -0.147034863420     1.074733181633
C     -2.305328249983    -0.271143102810     0.497319098070
H     -2.800498965169    -1.239830040357     0.308526925390
H     -3.024484354733     0.431767515037     0.954063793902
H     -1.892460196356     0.140894353169    -0.437860439907
N      0.507814415211     0.085370567572    -1.948246206295
C      0.249891444622     0.488745332385    -3.235175230979
C      0.447108044967    -0.378504708225    -4.289350372511
C      0.903971748131    -1.657860879743    -4.070257285214
C      1.134721888342    -2.049692910665    -2.779804190260
C      0.910152304868    -1.142104768002    -1.723966150390
H     -0.123012323884     1.485163545321    -3.433280928432
H      0.245863738287    -0.044971529698    -5.294716383988
H      1.066471862682    -2.342277839719    -4.898942943150
H      1.477081309261    -3.036943461557    -2.538260756989
O      1.135313752401    -1.639334362506    -0.529220671364
H      0.722003867693    -1.052944282145     0.249862002003

