# STO-3G

title

0 1
C      1.018075185115     2.910334418300    -0.460544063616
C      2.377810595627     3.286190998220    -0.438401538408
C      2.745400545956     4.624402680053    -0.694248953330
C      1.761811467823     5.590457322655    -0.980788780116
C      0.405230783131     5.214273399344    -1.009626825285
C      0.030553142806     3.878888787135    -0.750205943609
H     -2.591607731485    -3.632967381201     1.609672769987
H      3.153433362756     2.551069217848    -0.229948565004
H      3.796537686802     4.905233253782    -0.670570541959
H      2.048946682409     6.620554585330    -1.177979145208
H     -0.362572603563     5.953392685489    -1.229544138831
H     -1.025393716651     3.610908160492    -0.772796932033
C      0.976951742142     1.041576016530     2.045387730284
H      1.767308794503     1.757360324244     2.244758218859
H      1.234827160785    -0.012696355629     2.094781060987
C     -0.361713823494     1.424408257346     1.948619688509
H     -1.131218005450     0.665441609493     1.895780762554
C     -0.853302355466     2.791267983950     2.187814088497
O     -2.043308219654     3.059558958117     1.880463905693
O      0.044358320453     3.791026626536     2.598463818230
C     -0.498612446535     5.112980097955     2.720195175976
H      0.302601157036     5.810337505211     3.047275816276
H     -0.888963386626     5.472993772679     1.741687488013
H     -1.314435173370     5.138812741710     3.477835866794
Pd     0.501740875888     1.004258599384    -0.147930587101
C     -1.177808816981    -4.296137941168     2.691518455343
O     -2.367563529423    -4.519851453812     2.053323899302
O     -0.557046093929    -5.152548973191     3.331042217243
C     -0.712680053304    -2.812505308189     2.510357109996
H      0.345958469576    -2.813654456241     2.220882215280
C     -0.882460271609    -2.033514657212     3.797086069392
H     -0.532653281519    -0.993084641828     3.661840793206
H     -1.958171088554    -2.019569408025     4.072959938976
H     -0.300021422574    -2.511317983510     4.612209335616
N     -1.617870269691    -2.229971617213     1.508423242366
C     -1.198722113997    -1.496368169232     0.540291645417
O      0.060745692388    -1.066040411186     0.356952573498
C     -2.206396047509    -1.083588105748    -0.444831932963
H     -2.643468560378    -2.006063129644    -0.869522427517
H     -2.992036730700    -0.522483855998     0.091156934972
H     -1.744494979116    -0.475166471409    -1.240871584851
N      0.929287495874     0.500897000076    -2.171904792060
C      0.900703044872     1.427847135365    -3.185068573072
C      1.393005992743     1.111970628279    -4.433501354488
C      1.917626943873    -0.133665114491    -4.687495289406
C      1.922092867864    -1.051583862171    -3.673597482810
C      1.402382529608    -0.702799981895    -2.409194005761
H      0.478669129824     2.409790041570    -3.020968604419
H      1.366039041819     1.852516133104    -5.216846648729
H      2.308781651990    -0.385191278297    -5.670063359296
H      2.303177145991    -2.045009391702    -3.810973806344
O      1.442288039601    -1.677673465379    -1.535097294835
H      0.868244100270    -1.520505541278    -0.647162198564

