# STO-3G

title

0 1
C      1.028919687417     3.219421322958    -0.892248579151
C      2.360296858902     3.103885839428    -1.352988717979
C      2.993597582876     4.182597986748    -2.004647996141
C      2.300640466474     5.390355656519    -2.216162409355
C      0.970204419879     5.510822056750    -1.771975895094
C      0.338008337645     4.434496860657    -1.113593935892
H      2.971562564712    -0.485811268735     1.280258100102
H      2.910688897575     2.172911315998    -1.220297032008
H      4.020634914148     4.074945453112    -2.348983026828
H      2.788944343516     6.221368001662    -2.719924628728
H      0.423906588669     6.438444780714    -1.933183578514
H     -0.693576543216     4.554366429755    -0.783901159619
C      0.980218985674     2.199443700197     1.965253294064
H      1.052602617228     1.242145693218     2.466485853942
H      1.912930525872     2.669614368839     1.671099582022
C     -0.229409221220     2.885622877294     1.879497921824
H     -0.242132194112     3.883042712613     1.467796966838
C     -1.473916055165     2.464598419352     2.547146016420
O     -2.533627802240     3.090977569568     2.282062735022
O     -1.433590385817     1.479440730977     3.550415386387
C     -2.702153436213     1.079413394054     4.085662490671
H     -2.544949185800     0.295154269050     4.857076629354
H     -3.220130758279     1.940560121219     4.565688510340
H     -3.349420271074     0.653528184021     3.285670141157
Pd     0.091533503026     1.665101785014    -0.019668413270
C      1.742090992165    -1.455246014040     2.494390165986
O      2.014708880412    -0.709187780969     1.308825418038
O      2.685157898501    -1.722008237530     3.245649124456
C      0.244537063159    -1.725907487094     2.679121252982
H     -0.149438494692    -0.773802041228     3.087317563284
C      0.006487024489    -2.826146259229     3.686595436644
H      0.431164507278    -2.550024233013     4.674053545779
H     -1.084554878681    -2.992650569615     3.787867570700
H      0.474971490282    -3.768002373748     3.330781847982
N     -0.459761941640    -2.119185201444     1.455134381259
C     -1.000354166416    -1.181134761232     0.732188836807
O     -0.969634849446     0.130710372525     0.953827844261
C     -1.788571604520    -1.660902172835    -0.414123390884
H     -2.595886685613    -2.299460540548    -0.017161093444
H     -2.203381806147    -0.798174273814    -0.960984712087
H     -1.123260378852    -2.259844183418    -1.061089107359
N      0.089083337449     0.751946526262    -1.897490272088
C     -0.614585010078     1.349302850231    -2.910156398391
C     -0.590467964177     0.809677444771    -4.178980031520
C      0.149121005773    -0.322185632091    -4.442245250754
C      0.847052160129    -0.893848740938    -3.411539312678
C      0.790482879560    -0.315343879754    -2.126988559451
H     -1.196635243001     2.241646495447    -2.711106384056
H     -1.146662554081     1.285637244728    -4.970251358434
H      0.179073378504    -0.749727694010    -5.441086175197
H      1.444818785015    -1.773985323006    -3.548273868661
O      1.512557283971    -0.962277999223    -1.229624377325
H      1.434678424866    -0.747882182808    -0.249238827499

