# STO-3G

title

0 1
C      1.099687569937     2.777340316891    -0.361387992757
C      2.507340403704     2.724212064025    -0.420686900117
C      3.229160306961     3.785229631203    -1.006988388769
C      2.551827102834     4.896667915639    -1.545172871141
C      1.145596851558     4.944348402520    -1.495887342521
C      0.418056743615     3.888290435981    -0.906791687545
H     -0.120739607549    -0.899511949127     1.764957662948
H      3.046437900953     1.863682625195    -0.029041656247
H      4.315456410172     3.735585335229    -1.045989920577
H      3.112397937208     5.711072798226    -1.997754856118
H      0.613162693533     5.798041496426    -1.910187590259
H     -0.669213804087     3.951630910444    -0.868889094977
C      0.696987351599     1.702919044994     2.499815606449
H      1.631093111609     2.253674940904     2.458688330827
H      0.771034064668     0.671627218006     2.833474625469
C     -0.542989285411     2.326206816136     2.357511937234
H     -1.441335150997     1.746021419518     2.513842642841
C     -0.728341113709     3.780631304615     2.228933437437
O     -1.860285532238     4.212515986021     1.887934590658
O      0.382082379648     4.635568891392     2.332749985539
C      0.132684853239     6.026546558079     2.088557326190
H      1.082511950593     6.593386497578     2.197143047389
H     -0.245635139874     6.185340089637     1.053655566369
H     -0.602179787866     6.432239525090     2.820221124362
Pd     0.012525890140     1.279834446148     0.392387755919
C      0.382462227862    -2.873102982400     2.080689048649
O      0.761385989417    -1.547644429347     1.832759535543
O      1.220980097900    -3.767781358899     2.193231541426
C     -1.172047672666    -3.012927355625     2.199472997805
H     -1.444602500878    -2.434474807773     3.102533778652
C     -1.598104253949    -4.446611497503     2.392901891772
H     -2.696213692703    -4.490720612984     2.545714642166
H     -1.341764046049    -5.026418452749     1.482263256482
H     -1.087500568227    -4.889898311997     3.272779941725
N     -1.922075328831    -2.512216918200     1.026108571272
C     -1.917962380016    -1.265509398602     0.706976750198
O     -1.210238742306    -0.272378865313     1.321519307089
C     -2.764474580600    -0.874741917679    -0.424565534759
H     -2.395751462912    -1.415485170979    -1.313569808991
H     -3.795132725501    -1.191579932932    -0.189738691541
H     -2.712790614605     0.216450109647    -0.572399810403
N      0.402010584543     0.266465101564    -1.396172077622
C     -0.137831561359     0.756656281485    -2.555869333976
C      0.248753602333     0.239704563306    -3.773263511965
C      1.189691329025    -0.763023453056    -3.838135903138
C      1.718505977851    -1.232495636443    -2.665959651063
C      1.289014941444    -0.691145760799    -1.434892492560
H     -0.874602316213     1.550250166792    -2.514163008415
H     -0.181627384237     0.632582998566    -4.679863921525
H      1.505348276415    -1.171082020706    -4.794738921328
H      2.454388769939    -2.012566793562    -2.647849863280
O      1.888586334168    -1.227477583517    -0.396028360064
H      1.491180480306    -1.244816030105     0.562915149051

