# STO-3G

title

0 1
C      2.579051967882     0.584408486388     3.440169885994
C      2.269639644065     1.830233401408     4.032099614963
C      3.120892874406     2.382009131436     5.013043162682
C      4.283099902350     1.695196426352     5.413619785622
C      4.594219168101     0.453999614210     4.825241002892
C      3.749410988265    -0.098291543414     3.839678353775
H      0.984876810144    -3.899715615861    -0.427380933301
H      1.378227705363     2.380989437675     3.733915339459
H      2.872750790710     3.341887479088     5.462228441348
H      4.935473185929     2.119351480512     6.173510049188
H      5.490542867462    -0.084373468638     5.127930073738
H      4.012463416875    -1.052381100015     3.384994736590
C      0.490113230137    -1.616840125840     3.417986467050
H      0.165262777311    -2.451900207687     2.799899826430
H      1.322876727538    -1.793226393080     4.090081111985
C     -0.258585157337    -0.440518852822     3.501833773511
H      0.022693183831     0.325996243618     4.205594137614
C     -1.597664552302    -0.271665930198     2.912556213794
O     -2.321837843827    -1.275157652163     2.695023704707
O     -2.039774847892     1.029842354319     2.621763889701
C     -3.347970130839     1.120527665269     2.035849675934
H     -3.589757201154     2.184416446932     1.825473562119
H     -3.396963846914     0.554121786663     1.075871696449
H     -4.120949490712     0.719744026153     2.730650825830
Pd     1.419720798272    -0.153875236243     1.983766071928
C     -0.818213832017    -3.429331354474     0.204125081209
O      0.140437899700    -3.548808323862    -0.789312581862
O     -0.664828364972    -3.956111470425     1.321174068183
C     -2.054470053934    -2.627265458995    -0.265665929732
H     -2.744306890787    -2.616441768183     0.588191243812
C     -2.758232480567    -3.305455390747    -1.420556855538
H     -3.692895194076    -2.757503684833    -1.659934617300
H     -2.095028458431    -3.285198715904    -2.310022021781
H     -3.004988170747    -4.355718339471    -1.161951397036
N     -1.807848560333    -1.239917572676    -0.702153580655
C     -0.756900368672    -0.605784147206    -0.335459277903
O      0.246150391821    -1.085526151314     0.449815585239
C     -0.620826191190     0.773041196613    -0.821214150529
H     -0.641088988223     0.733006507118    -1.924818164714
H     -1.486648338285     1.346618442162    -0.451498051198
H      0.329383465507     1.208481260646    -0.468363776781
N      2.939888625871     0.277864958863     0.568525423866
C      3.809534694580     1.330476704896     0.698410697454
C      4.932053778220     1.405470095067    -0.099443761295
C      5.195168818300     0.429503637685    -1.034547086059
C      4.306511358367    -0.603558318289    -1.160781458908
C      3.161851412974    -0.646210597990    -0.337170752904
H      3.616620976374     2.111147127756     1.424111541056
H      5.611239448244     2.234342731348     0.017219368408
H      6.081175013121     0.482024627333    -1.661923492991
H      4.443028207935    -1.390747772672    -1.876619284467
O      2.365175595094    -1.664649065783    -0.557017987944
H      1.351253733499    -1.519257552090    -0.152107406535

