# STO-3G

title

0 1
C      1.386149207819     2.610537117733    -1.010741793738
C      2.785936580543     2.625508921151    -0.839439688712
C      3.576471834425     3.500279807466    -1.615786097789
C      2.974591179032     4.359648575064    -2.554441968262
C      1.575727325186     4.342469029799    -2.719514099429
C      0.778792868489     3.469061826859    -1.950268214827
H      0.557556929402    -1.275831445792     0.390825251678
H      3.271023569816     1.959835662162    -0.127809493154
H      4.656453640813     3.505011197862    -1.484728086189
H      3.586238016508     5.034272689104    -3.148615114849
H      1.101398556901     5.004411414227    -3.441390701636
H     -0.301333885888     3.463146807445    -2.089971134023
C      0.639799962334     2.204864875466     2.038050897647
H      0.266493555319     1.455215816975     2.729466255133
H      1.701677619721     2.424548312171     2.081874817111
C     -0.222581637806     3.059968320675     1.345843218607
H      0.183148281827     3.902118268786     0.809194566165
C     -1.692112471686     3.055003345657     1.455768346814
O     -2.346187106157     3.867110750399     0.753517281637
O     -2.331342906901     2.050147882985     2.201783744768
C     -3.766134233195     2.056303258807     2.151923117072
H     -4.165929271590     1.246110422749     2.798737460647
H     -4.173735469323     3.024133942771     2.523811874125
H     -4.125720664760     1.878734384678     1.111995819383
Pd     0.324532579525     1.280031279543     0.034894562688
C      2.123150199987    -2.009259769411     1.408741428077
O      1.382548512092    -1.832728418967     0.257720712614
O      3.096767826259    -2.769009119100     1.420684687016
C      1.682295681966    -1.088929581669     2.604134142875
H      1.896350180284    -0.068626964157     2.237471059865
C      2.508871481147    -1.335730142891     3.841701056768
H      2.221324634292    -0.615153130666     4.634865895024
H      2.311188068092    -2.364989589315     4.207399672988
H      3.590415510026    -1.224463084714     3.619246482084
N      0.278076932882    -1.221474919127     3.021013410712
C     -0.727190374922    -0.884385140012     2.297334988599
O     -0.702483293890    -0.390685574662     1.021269444945
C     -2.049840186743    -1.110308777094     2.889909243135
H     -2.114079621049    -2.179024734996     3.160264242302
H     -2.119371047507    -0.484537226586     3.795410728964
H     -2.840009098320    -0.848715948121     2.166261595324
N     -0.118249638715     0.224959765070    -1.751248800123
C      0.736041727777     0.160369946160    -2.820690761857
C      0.266457713169    -0.238214901662    -4.056091936330
C     -1.051602696912    -0.602479958486    -4.221555905757
C     -1.878072481623    -0.570492994529    -3.129278579655
C     -1.360242709647    -0.170361986811    -1.879803688008
H      1.775843328692     0.442058157376    -2.704397303960
H      0.944703846834    -0.273110211543    -4.892655911961
H     -1.422434358156    -0.923424960287    -5.191307678687
H     -2.903876274706    -0.874429039281    -3.182404094073
O     -2.214176634965    -0.237180709954    -0.878562486477
H     -1.721984201162    -0.286087622295     0.067144164979

