# STO-3G

title

0 1
C      1.770801208283     0.438440071819     2.752291315350
C      1.921532559183     1.684816522813     2.108166504612
C      2.441435977774     2.779008067085     2.827578821618
C      2.814483281167     2.637331429865     4.178711359745
C      2.668026648987     1.389263910684     4.808492305478
C      2.148526237401     0.283926736976     4.098680035908
H      1.475827487745    -2.949711146923    -0.171078231474
H      1.631013944102     1.787989206854     1.068163019868
H      2.553580724512     3.738809249555     2.328034010098
H      3.214578875870     3.484168422182     4.730910123819
H      2.952464316992     1.260826797797     5.850775548544
H      2.044854368147    -0.661740427607     4.622951639539
C      0.535492897927    -2.511506704766     3.056625820244
H      1.040180000856    -2.481695517176     4.018972687261
H      0.616519456651    -3.451010186445     2.515091614024
C     -0.565601096163    -1.638510534468     2.779528889010
H     -1.244243687034    -1.890779817326     1.975823541503
C     -1.120593784659    -0.679219940427     3.752960659394
O     -0.652362470804    -0.635917780905     4.920989417655
O     -2.190123471312     0.139801881486     3.360464908010
C     -2.635654311697     1.095956933644     4.332719688566
H     -3.477008071478     1.686943917622     3.910384208301
H     -2.999104478570     0.585634695630     5.253702194163
H     -1.814716923568     1.800585897962     4.599500762836
Pd     1.114441474199    -1.027572092482     1.559139711936
C      0.105801113843    -2.025324120702    -1.284179818605
O      0.562025123082    -2.609035108265    -0.030061807976
O      0.905088861752    -1.978474392152    -2.220155543076
C     -1.403917636531    -1.706225033687    -1.230174318088
H     -1.853017464097    -2.505129916092    -0.620746281114
C     -2.020003984173    -1.763140570535    -2.610688967484
H     -3.119518880625    -1.631437279844    -2.533593439013
H     -1.606359510213    -0.939634868419    -3.228762881839
H     -1.803734614459    -2.737406856343    -3.096170021068
N     -1.810172158261    -0.418580381359    -0.656782611735
C     -0.945607477042     0.408029705071    -0.155289660217
O      0.380712034798     0.254311544314    -0.062485503205
C     -1.518117061197     1.672144228304     0.331709733553
H     -1.995426453012     2.171925389123    -0.528211988056
H     -2.278152550976     1.425792996668     1.091716422347
H     -0.724095652275     2.305905141998     0.759973058879
N      3.106184681946    -1.162541731658     0.559187789544
C      3.408137981841    -0.531625934588    -0.619698413510
C      4.707624244103    -0.557908908724    -1.093809455913
C      5.696393325031    -1.223167921695    -0.398237311418
C      5.359790733528    -1.849293618305     0.775593857634
C      4.026151357796    -1.785356165264     1.219491687809
H      2.638012791786    -0.014449972863    -1.177927653079
H      4.937323478004    -0.064823261305    -2.023814667653
H      6.716105090379    -1.251763841265    -0.772617179616
H      6.075898700676    -2.383679825859     1.366179749261
O      3.779479113112    -2.419799171673     2.369735071106
H      2.825838861229    -2.278663876670     2.629679397496

