# STO-3G

title

0 1
C      0.941110273634     2.803297477785    -1.116963099927
C      2.206190596542     2.959039185457    -1.725130555509
C      2.468281662232     4.083946608040    -2.534420218812
C      1.470716830217     5.055638010714    -2.745437152288
C      0.208772941919     4.898212138152    -2.142198394338
C     -0.060627520572     3.774486407343    -1.331223597047
H      1.227107052073    -0.659720543960     2.306381004729
H      2.987482142524     2.215610892279    -1.576784080504
H      3.448511529526     4.198391871354    -2.992793102134
H      1.676508824940     5.925532708501    -3.364457313931
H     -0.564955838651     5.648427152939    -2.291427052750
H     -1.043874539874     3.676595293384    -0.875490893329
C      1.688972223395     2.082737609828     1.663429410686
H      2.219519635072     2.950808702473     1.289429127099
H      2.287983825166     1.232906535647     1.976406028096
C      0.338473789229     2.136708557203     2.008048296636
H     -0.100845246978     1.289762802488     2.512809598029
C     -0.492010947830     3.352087183967     2.020018857011
O      0.006224127382     4.459189612563     1.689912146628
O     -1.877676715901     3.201048181378     2.193905398743
C     -2.642403838813     4.415228329197     2.205190802266
H     -3.715708332942     4.174467589759     2.365708735236
H     -2.311138277068     5.083287700853     3.032982939810
H     -2.547173652443     4.955499577984     1.235907346707
Pd     0.573510132509     1.142817385308    -0.064801366696
C      1.020587526805    -1.336067692572     4.180546561274
O      1.652681647519    -0.573357284375     3.235643352522
O      1.378084725447    -1.338481884133     5.365617299019
C     -0.182648703135    -2.224388486582     3.693768799059
H     -0.733571179957    -2.446303263999     4.612670972742
C      0.307799989061    -3.541170445221     3.118695092316
H     -0.560266281125    -4.188765844468     2.875803951173
H      0.887278640217    -3.350491127630     2.192503208502
H      0.953145051940    -4.064649546256     3.854645720021
N     -1.150855040522    -1.664485569556     2.739429380290
C     -0.921991694605    -1.058463993443     1.641858828528
O      0.313554760873    -0.704813959063     1.120491527818
C     -2.093851933629    -0.674886311808     0.846577109757
H     -2.666934138070    -1.595993225731     0.638817966449
H     -2.703204726683     0.009601206447     1.463232311246
H     -1.783811199075    -0.194937736694    -0.095968852902
N      0.354426895625     0.045345354168    -1.887306995366
C     -0.049846984009     0.640687581837    -3.057454108752
C      0.037682723211    -0.041064512400    -4.253106818177
C      0.530706183734    -1.324493130725    -4.295635289745
C      0.907640422477    -1.910999237362    -3.118727650913
C      0.793734271397    -1.191272163559    -1.910935914708
H     -0.456791905391     1.642919016893    -3.052790014438
H     -0.277924693574     0.443382458123    -5.163214983255
H      0.607566430270    -1.862190455144    -5.237206803226
H      1.285753064769    -2.913885429084    -3.080107512297
O      1.154953056840    -1.871297364558    -0.847974352899
H      0.842800317993    -1.435932382478     0.069185407224

