# STO-3G

title

0 1
C      1.205629265392     2.673928221786    -1.237612910612
C      2.605940030596     2.622508680067    -1.053984592713
C      3.449897449420     3.373235530037    -1.900555303089
C      2.907903680184     4.174173502164    -2.924087743136
C      1.511976284802     4.222831841461    -3.104805779645
C      0.660542265077     3.472902227072    -2.266024020047
H      1.800707022162     0.210730253071     1.217094675831
H      3.048890350586     2.000734574767    -0.278062309032
H      4.527409842676     3.329160125864    -1.754675265706
H      3.563111540824     4.753553972424    -3.570732416862
H      1.083275907662     4.839604240619    -3.892726007929
H     -0.416823034852     3.515021958339    -2.422404658670
C      0.661524889288     2.647925420088     1.754569019526
H      0.480441104122     1.954888524232     2.569452021900
H      1.699850392863     2.866801831268     1.535902045935
C     -0.372068648086     3.395770349088     1.188837787952
H     -0.141189612551     4.177552043781     0.481257424495
C     -1.766644337591     3.376906885301     1.666375052282
O     -2.632174341119     4.015079584874     1.012592462205
O     -2.100641256044     2.682937332036     2.844397951609
C     -3.491754937357     2.678198741996     3.193392718437
H     -3.633950108356     2.104680217901     4.134164156641
H     -3.862078960803     3.715423849849     3.359848766333
H     -4.096860689712     2.192687572697     2.394094207843
Pd    -0.000031847746     1.557356772187    -0.088415681031
C      2.886468250907    -0.713089254721     2.460429396125
O      2.797175180178     0.253857024465     1.491097044167
O      3.909021220703    -0.974038530795     3.103239595387
C      1.505147429683    -1.450606359788     2.640284461285
H      1.303577488890    -1.523266490209     3.719295367868
C      1.558136617207    -2.843024805255     2.047339103529
H      0.590609503840    -3.360177409667     2.197649426069
H      1.759859760669    -2.768619140857     0.957708237000
H      2.364597660390    -3.433345560179     2.530512625912
N      0.561514678686    -0.655306022633     1.864805854571
C     -0.707539024726    -0.467583500820     1.982783655550
O     -1.344772945078     0.399484567348     1.198659930320
C     -1.511288953402    -1.155118955938     3.010872212879
H     -1.447464994449    -2.240848341059     2.834112583950
H     -1.105272406023    -0.883847671456     3.999339450604
H     -2.561324061626    -0.818778954776     2.932749905452
N     -0.303751362978     0.182297366041    -1.676369893059
C      0.639065619846    -0.019405182302    -2.652391905714
C      0.326662061239    -0.756600673151    -3.776732183685
C     -0.925754415036    -1.305684309849    -3.930104665783
C     -1.842352810328    -1.119653423213    -2.930373801526
C     -1.485300852101    -0.370865465782    -1.788599881471
H      1.634775099545     0.391958989520    -2.546997657551
H      1.075372776633    -0.899200603311    -4.538813888996
H     -1.175886448256    -1.883734172394    -4.815756911159
H     -2.828102304353    -1.537004608023    -2.978425535041
O     -2.431875567983    -0.296900316557    -0.877872305393
H     -2.104445887061     0.024230796849     0.073453629048

