# STO-3G

title

0 1
C     -0.326067251516     2.819528857797    -0.837045620370
C      0.925736393950     3.226184259854    -1.347068171169
C      1.017463521418     4.368230310306    -2.168976596889
C     -0.137267092463     5.106981559559    -2.493395155017
C     -1.386239381196     4.700224482062    -1.987543480529
C     -1.483380631456     3.561662932248    -1.158748600600
H      0.428852287839    -0.457300829584     2.041926526533
H      1.829364161252     2.667706405600    -1.108786980996
H      1.989196657048     4.673625021788    -2.552182076197
H     -0.063568287840     5.985814177850    -3.129510132382
H     -2.283775137932     5.266425019819    -2.228319308615
H     -2.458166153369     3.272376360662    -0.769781185156
C     -1.489672236343     2.111933510081     2.085833136462
H     -2.187335186014     2.882020567453     1.773215441132
H     -1.901053011442     1.181553083519     2.463152589861
C     -0.127027633080     2.375730824965     2.224436229523
H      0.532209366477     1.637798570167     2.665345406808
C      0.480056103418     3.704978641387     2.030850477761
O      1.728724449070     3.823508692716     2.124983939299
O     -0.339059997725     4.798802044060     1.697464880581
C      0.346571946179     6.011262765454     1.356074462870
H     -0.397412094517     6.795693016727     1.100835449580
H      0.960567179836     6.374765532429     2.211104810128
H      1.001337425093     5.856213855557     0.468461039334
Pd    -0.520187975419     1.170041516683     0.278521433926
C      1.832727664887    -1.798127291959     2.710834653112
O      1.507250795656    -0.555893425677     2.146545731638
O      3.000962030609    -2.110712319793     2.939762024453
C      0.551979544535    -2.653603132873     2.989424009850
H     -0.005650072827    -2.094690721700     3.764814541854
C      0.890517852296    -4.022465867189     3.524096287477
H     -0.043944641311    -4.566466051926     3.772650194904
H      1.437048232252    -4.590744240520     2.743337201491
H      1.520464953694    -3.940435417482     4.433954164597
N     -0.301632659898    -2.872014903142     1.800289381793
C     -0.908409492976    -1.895399856643     1.221117682918
O     -0.826448483507    -0.575499896597     1.558638213446
C     -1.787687191669    -2.243291690467     0.100463901850
H     -1.158955517628    -2.710953241149    -0.677469434091
H     -2.527940843215    -2.970810308896     0.475100715502
H     -2.282623272642    -1.336793434218    -0.283700372256
N      0.216250626084     0.107222144919    -1.355081400132
C     -0.517327521264     0.111081091244    -2.512299639294
C     -0.021244284315    -0.488144471552    -3.649495347954
C      1.221525565563    -1.079915252968    -3.640401711098
C      1.939728191957    -1.060163496025    -2.475388619269
C      1.396903710886    -0.448874754809    -1.324528062978
H     -1.494511180795     0.579454365802    -2.529811868579
H     -0.606622158613    -0.480971945350    -4.554420038015
H      1.623730560934    -1.547811325758    -4.535150550720
H      2.915701605452    -1.499817018736    -2.403033573735
O      2.206796394512    -0.491580450496    -0.292036439587
H      1.927442440963    -0.351802388327     0.691898972911

