# STO-3G

title

0 1
C      0.091071300981     3.127106894548     0.031998931930
C      1.308155545282     3.843571211760    -0.005530725431
C      1.303099606820     5.251689470110     0.073716202388
C      0.086468738040     5.952520280601     0.184315119128
C     -1.126507613099     5.238714972740     0.216715514602
C     -1.128199629990     3.829184368091     0.141601069197
H     -1.619993196105    -4.387368026989     0.327057292318
H      2.258052191292     3.317010328482    -0.090091888453
H      2.246815504042     5.793159555729     0.049051959836
H      0.083998718545     7.038229003108     0.244851543998
H     -2.071160315251     5.771870813174     0.303618374199
H     -2.078038381034     3.298682343160     0.165661412554
C     -1.007364740412     0.791975183956     1.784586420475
H     -1.682610753328     1.619326905256     1.971635330473
H     -1.466105091411    -0.154227341576     1.513366201465
C      0.342074130061     0.847142485014     2.140797173051
H      0.948700554799    -0.045100954047     2.052853582253
C      0.967856366550     1.975923244085     2.851270530552
O      2.217885951630     1.981254490804     2.988515498848
O      0.178267206408     3.069403746381     3.246034461358
C      0.886835320824     4.192341356938     3.788059660827
H      0.161497245750     4.990808939920     4.054780082617
H      1.444076543678     3.904208269293     4.708254113162
H      1.597019262984     4.610081528626     3.038878464123
Pd     0.142596052902     1.133454561329    -0.115910340537
C     -0.175891098749    -4.878882108006     1.459702934936
O     -1.202267268340    -5.260737354359     0.638495664977
O      0.601416033370    -5.662704126920     2.015411009336
C     -0.127015370157    -3.320572994567     1.612234073563
H      0.911859932182    -2.989014985978     1.489790678255
C     -0.634231794009    -2.901511253681     2.975554459981
H     -0.565831959145    -1.804003893053     3.088475725866
H     -1.695021718018    -3.212735683762     3.079884563138
H     -0.029910497973    -3.384881140456     3.771437154908
N     -1.056549345659    -2.797138342492     0.599562508389
C     -0.760985426275    -1.819090233632    -0.179714200480
O      0.335062650586    -1.043175902604    -0.108130248079
C     -1.735689017719    -1.519115419499    -1.237932633027
H     -2.706774013097    -1.306946678489    -0.758102020461
H     -1.389690448491    -0.670869320969    -1.850547146649
H     -1.830536838336    -2.426108848354    -1.864228346064
N      0.703802821721     1.258425951251    -2.160116732193
C      0.394084468520     2.346974800205    -2.938360005681
C      0.935327619780     2.478330067581    -4.199365909701
C      1.792065177347     1.525243801084    -4.699304516637
C      2.074745903070     0.437521149922    -3.919573412134
C      1.498662974130     0.325222882711    -2.636841755827
H     -0.289291588432     3.104664807518    -2.576943883191
H      0.686114988074     3.341189347253    -4.796144870254
H      2.224211206636     1.628095231401    -5.691479286804
H      2.723292890104    -0.347993431296    -4.256498683250
O      1.820914197304    -0.774540815068    -2.004628152153
H      1.235847533667    -0.992687507805    -1.131717444960

