# STO-3G

title

0 1
C      1.619721382479     1.535826696350     1.025855444918
C      0.588918211154     1.770503846988     1.970294295053
C      0.625671864773     1.141846470661     3.218902383011
C      1.689288325183     0.267431673695     3.557942237692
C      2.726089826536     0.040680238259     2.649659295086
C      2.702221459232     0.672415020827     1.372961006124
H      1.618123227324     2.071484376989     0.080407514455
H     -0.233493216932     2.426446260744     1.704700077187
H     -0.174840063835     1.314590427615     3.933437142582
H      1.694883553787    -0.222677542760     4.527857109387
H      3.562114916385    -0.600547570830     2.916810367770
H      3.587231483894     0.650318032294     0.745954856028
C     -1.298650231659     1.868266813333    -0.874211482397
H     -2.255007756153     1.889617998832    -0.356505823400
H     -0.746425606765     0.937293837556    -0.794385628065
C     -0.793612834643     2.912245360656    -1.571309339673
H      0.161290263951     2.803676008879    -2.067228630729
C     -1.458234907862     4.215636797927    -1.734413085159
O     -2.577270883423     4.428029409262    -1.191755896144
O     -0.810113511108     5.215393638671    -2.482109253874
C     -1.506839599848     6.464045627482    -2.596481010352
H     -0.901162595398     7.168740765306    -3.205707613776
H     -2.489703770070     6.323296592810    -3.100838509972
H     -1.667726773193     6.920154922138    -1.593315182529
Pd     1.285204006398    -0.609900151776    -0.168058357733
C     -0.761476966389    -2.257582191362     0.930421693875
O     -0.137968259037    -1.089776605764     1.183975919883
O     -1.541818656174    -2.827911500788     1.715626948131
C     -0.415659785214    -2.870495925431    -0.474801159668
H     -1.325090881340    -3.367095793961    -0.836307731096
C      0.692617435133    -3.894696643780    -0.384984605326
H      0.904768372392    -4.302785371609    -1.394666798326
H      1.612886249702    -3.419304731678     0.010074251759
H      0.390459327841    -4.724874720201     0.287643688516
N      0.073736161216    -1.771488928255    -1.332216888924
C     -0.409391068710    -1.385152830415    -2.487315920344
O     -0.089958005254    -0.292645600872    -3.124832478410
C     -1.407543225545    -2.220017464675    -3.185324372957
H     -1.621258829874    -1.777960797573    -4.176650698700
H     -0.985056326481    -3.230115736247    -3.318328483500
H     -2.338391367359    -2.235744424985    -2.592296115800
N      2.814369345435    -0.326313158249    -1.513052100434
C      3.958100895930    -1.063070670222    -1.371804780624
C      5.083987422143    -0.731365711262    -2.095172199578
C      5.064795687045     0.326750432725    -2.978655589590
C      3.896768939268     1.025179093673    -3.136376227889
C      2.752751284287     0.655011569271    -2.394034156937
H      3.987151859739    -1.883770182081    -0.664523211643
H      5.987743071798    -1.303859929949    -1.963809029936
H      5.951508121730     0.591616127639    -3.548634092111
H      3.805834588712     1.837996197849    -3.828958716848
O      1.661060254447     1.303033758430    -2.637637311849
H      0.647491067622     0.461745825764    -2.789879905419

