# STO-3G

title

0 1
C      1.838679860360     1.539802876552     1.317993207926
C      0.809671290768     1.831048557311     2.250162709032
C      0.726691824174     1.113675092949     3.447787581827
C      1.668957658972     0.097948813256     3.749098476305
C      2.706992744235    -0.182012718137     2.857276813653
C      2.802951479396     0.535439761921     1.631502943601
H      1.941580537923     2.138312261997     0.416861813811
H      0.085622641522     2.607839528952     2.024930922387
H     -0.072577706816     1.329403314239     4.151940491213
H      1.581519764538    -0.458481895180     4.678314787913
H      3.452579873873    -0.934870978413     3.098995758652
H      3.701587937959     0.451832260426     1.030041122201
C     -1.549858639745     1.547902033784    -0.365808802018
H     -2.468907031387     1.121562758499    -0.764546700709
H     -1.115256297230     1.022912514352     0.477552370824
C     -0.952503297444     2.625331306527    -0.923898731769
H     -0.008641916400     2.989029635084    -0.542380804051
C     -1.451335450382     3.342542677869    -2.109360871203
O     -2.520435495001     2.970811897145    -2.668741786468
O     -0.771843197069     4.498553970582    -2.534425472897
C     -1.297186619535     5.138795568536    -3.705171469581
H     -0.677065614603     6.028374091274    -3.946752110672
H     -1.269368883088     4.447360396482    -4.577716487981
H     -2.343731345963     5.478747992865    -3.534156234365
Pd     1.312326550794    -0.443256408073    -0.060789758282
C     -0.796832643081    -2.114929337050     0.879518761750
O     -0.103380715174    -1.023899101919     1.261480852738
O     -1.598750191131    -2.731801822194     1.605912965057
C     -0.505616723990    -2.569573994522    -0.595917902563
H     -1.446719531324    -2.969879217285    -0.994398546115
C      0.544204658832    -3.656129837569    -0.651873328392
H      0.716076463896    -3.953003818995    -1.707017262609
H      1.496437859661    -3.280771599594    -0.226015444983
H      0.206949574517    -4.542359144813    -0.074198883860
N      0.032326940740    -1.404976346050    -1.328406054694
C     -0.433190556136    -0.871318260367    -2.430581103304
O     -0.049999026200     0.260510382440    -2.952376963984
C     -1.481220467638    -1.567933087214    -3.203192768821
H     -1.678468718359    -1.004438607392    -4.134719474264
H     -1.117235732096    -2.578091488096    -3.453962728285
H     -2.407010361722    -1.596554112380    -2.603056142829
N      2.823850147976    -0.034011115034    -1.392438339605
C      3.945543178719    -0.816309795814    -1.392308901319
C      5.068735597266    -0.408963798556    -2.080616984255
C      5.067561290639     0.772266214320    -2.791638567020
C      3.919461273769     1.519214847192    -2.816785411657
C      2.776358790165     1.072034014234    -2.116315192390
H      3.961482210326    -1.736090735043    -0.819300731107
H      5.956066340208    -1.020341708182    -2.058521745262
H      5.952169470629     1.095790389624    -3.333872595639
H      3.840457750673     2.429070204813    -3.377480224237
O      1.698286021541     1.774257766140    -2.237744361810
H      0.674714548552     0.954563809757    -2.499614524333

