# STO-3G

title

0 1
C      2.350334601229    -1.902529906769    -0.177348635928
C      3.571065771864    -1.632524696670     0.499040651819
C      3.968549172092    -2.423701699214     1.597705088098
C      3.165915567456    -3.501748351096     2.010599953501
C      1.961342730652    -3.796845325856     1.330580048157
C      1.558899766813    -3.006784113577     0.245662514038
H      2.104970885823    -1.398867177005    -1.111224094176
H      4.211295839633    -0.834931468235     0.137174556516
H      4.901933687467    -2.208888822296     2.110746800490
H      3.477742390857    -4.119469985493     2.849733950081
H      1.353539186969    -4.641665033113     1.644137672996
H      0.643065756131    -3.235414297267    -0.290507884993
C      0.625965917517    -2.422580595027    -3.040157081678
H      1.416477923414    -3.170403616791    -3.040850794808
H     -0.263362832446    -2.644871337110    -2.457610436765
C      0.733975874669    -1.231679455862    -3.671510116031
H     -0.058477499346    -0.503695518242    -3.592828129884
C      1.918153719243    -0.775594337877    -4.417786167845
O      2.938062479198    -1.514955361874    -4.495201928718
O      1.873370516781     0.471780276317    -5.068743226137
C      3.076849247831     0.870299246494    -5.739665568680
H      2.923245503143     1.863901247461    -6.212199641326
H      3.920850249443     0.953224947488    -5.017513630426
H      3.343649026808     0.142115324526    -6.538987508268
Pd     1.430117631969     0.109626533435     0.896881739271
C     -0.100035258107     0.950551471880     3.162999044536
O      0.795285553431     1.456913942813     2.282178121762
O     -0.488112066183     1.552816677601     4.179781101688
C     -0.641119622574    -0.494268006970     2.809946736811
H     -1.706558207093    -0.518766030067     3.074368090222
C      0.086124478603    -1.569736143614     3.581898079875
H     -0.321992584700    -2.564227538072     3.308046737935
H      1.166690208671    -1.549082261617     3.328649571051
H     -0.040050028132    -1.409277211873     4.672954566663
N     -0.352267581756    -0.712320191392     1.392342794350
C     -1.167227766929    -0.837114214801     0.385936516623
O     -0.811727434121    -0.681939589463    -0.884007255486
C     -2.571373559977    -1.220779486924     0.603663443988
H     -2.587349948819    -2.153810678700     1.192945949032
H     -3.079168313277    -0.398857820307     1.135670578586
H     -3.063222208583    -1.384502077463    -0.373558686192
N      2.649129057336     1.383759445774    -0.120039489099
C      3.633111855492     2.232357451379     0.295909263199
C      4.133121360927     3.175990926414    -0.578467626885
C      3.635122665333     3.282466483766    -1.860653410682
C      2.623473588221     2.441173460826    -2.246512521127
C      2.113739777263     1.493241191254    -1.330340412116
H      4.036497351736     2.143580507971     1.297916805896
H      4.917885956520     3.836745479763    -0.249572134746
H      4.028356387676     4.026823621414    -2.547576387241
H      2.176339719874     2.489652308989    -3.219418389939
O      1.126383636967     0.761270025946    -1.734302427855
H      0.038874247437    -0.112483198207    -1.150034169450

