# STO-3G

title

0 1
C     -1.522299067713     1.923191914269     1.372359178147
C     -2.164176893987     0.654468885153     1.274593070081
C     -2.182706536459    -0.215573778720     2.386563710274
C     -1.597067428662     0.179227814045     3.598236393556
C     -1.001067025702     1.455358590724     3.719923265460
C     -0.968298823688     2.317562192232     2.621832195645
H     -1.593643499551     2.666799975041     0.583207672021
H     -2.694105779685     0.354381210788     0.377274640349
H     -2.654362553362    -1.190672379629     2.299810787918
H     -1.603185787264    -0.496592059776     4.449770096711
H     -0.557504451811     1.762876207333     4.663133927751
H     -0.519755664358     3.300560323551     2.720037608614
C      0.880767718972     4.291773300865     0.426402061656
H      0.362089624276     4.858532032543     1.195952771871
H      0.526664141835     4.429072665785    -0.593030445037
C      1.907223990777     3.445284642058     0.673640468407
H      2.345845973508     2.923891075269    -0.164024946053
C      2.464743001489     3.148335971067     2.003267256393
O      2.037804235390     3.763026005410     3.019313420618
O      3.491911571024     2.194905026833     2.103456262062
C      3.785893276453     1.736829562340     3.430260625418
H      4.581937647023     0.963070063969     3.385094487298
H      4.142034342872     2.574043758271     4.071655615904
H      2.885530066930     1.268179316473     3.891533314637
Pd     0.203768911659     0.852530890287    -0.021588846102
C      2.045427064370    -0.726167787930     1.537939842976
O      0.984391554418     0.093097284822     1.653217801905
O      2.603903553402    -1.270837500834     2.510942468934
C      2.549814032453    -0.953573828701     0.078626746817
H      2.794235705659    -2.021884955672    -0.000466166054
C      3.798669786733    -0.147567607942    -0.211291009874
H      4.209717457510    -0.410611337778    -1.205036791573
H      3.553061354008     0.931848725997    -0.216261143022
H      4.571208116616    -0.340711342800     0.562171134244
N      1.505764475208    -0.524119465391    -0.873361792238
C      1.290279771051    -0.995601853637    -2.062322997604
O      0.377067073548    -0.495901942410    -2.881741244215
C      2.011846295551    -2.173030174397    -2.577727073882
H      3.089107400258    -1.943374135209    -2.608810971608
H      1.798230880119    -3.030008783676    -1.917485382738
H      1.658651869816    -2.399797687057    -3.601117678940
N     -0.485523327234     1.748580610474    -1.820596177615
C     -1.812612476535     2.002299437948    -2.071440939042
C     -2.182542331628     3.038927564794    -2.896619759858
C     -1.243231524032     3.840861060301    -3.501507048321
C      0.079508281795     3.605895804480    -3.252523175565
C      0.472827996976     2.560754713879    -2.381937576640
H     -2.575971387430     1.363562985895    -1.649918000621
H     -3.229791246446     3.211768836253    -3.088297388708
H     -1.546736020879     4.648246264947    -4.163173462390
H      0.855244319378     4.203283597201    -3.690185596516
O      1.702825770700     2.416824416601    -2.169621771653
H     -0.013567214804     0.399486844467    -2.524755647785

