# STO-3G

title

0 1
C      2.731113642224     1.832067876744     0.788497721677
C      1.863225037566     2.734561924888     1.456279922058
C      1.409717514694     2.442662566524     2.746538878405
C      1.813366483016     1.252515739713     3.403162167774
C      2.687880915988     0.364887501829     2.771743030805
C      3.155403029561     0.644063593483     1.456491440874
H      3.141431154518     2.092621006736    -0.183542755271
H      1.550721848802     3.646037421037     0.956590034548
H      0.734373490693     3.129408419362     3.249933442860
H      1.440707371890     1.035528200413     4.400495786942
H      3.026132120842    -0.532386822787     3.283132900873
H      3.967516580492     0.058002182878     1.039622908676
C      0.585678169640     3.215819255140    -1.942994313104
H      0.504650068458     3.660935036476    -2.931531454641
H      1.598106635227     3.107717815448    -1.566573900991
C     -0.473367666137     2.725496108161    -1.259392632526
H     -0.326579565267     2.227387709250    -0.312681969568
C     -1.861803108421     2.724467575663    -1.749238492873
O     -2.151970125334     3.294044485745    -2.836345871502
O     -2.806894584717     1.932552415609    -1.073624677095
C     -4.151302054340     1.995716266833    -1.568435945339
H     -4.801512958685     1.343751928500    -0.945569466569
H     -4.544799700437     3.035771980171    -1.507844238222
H     -4.204606554668     1.641529721296    -2.622535659796
Pd     1.487983264013    -0.044120565337    -0.212291027524
C     -1.160867948788    -0.484775118236     0.740772791185
O     -0.104771981640     0.318592192201     0.979222201358
O     -2.153111491406    -0.586483086488     1.487019579460
C     -1.038396394650    -1.324629480901    -0.580701999620
H     -2.043610218233    -1.360241841648    -1.020213811188
C     -0.578872246410    -2.738268705306    -0.303000805249
H     -0.517504957315    -3.303955052876    -1.255286492262
H      0.424460610682    -2.720040813651     0.168137248847
H     -1.295554037006    -3.245554270166     0.376640032079
N     -0.012705590105    -0.691932452062    -1.437305762771
C     -0.133080398470    -0.333555852664    -2.690971461151
O      0.721131954433     0.380731171288    -3.369025843357
C     -1.326399213303    -0.736211048290    -3.462287778584
H     -1.206920621677    -0.409061070506    -4.512197449380
H     -1.412146280248    -1.834655023347    -3.425121141759
H     -2.211718264024    -0.236413359706    -3.032695952034
N      3.097380117979    -0.613779249261    -1.355495638336
C      3.773602805334    -1.756210020608    -1.027290515145
C      4.993617556732    -2.025372263085    -1.610540613197
C      5.532968223699    -1.163605474719    -2.541685563221
C      4.820028224094    -0.046478545110    -2.889014537329
C      3.564142487197     0.198881668038    -2.288818679532
H      3.365681956250    -2.429082597547    -0.281995230278
H      5.529918486721    -2.917912496709    -1.332299912928
H      6.494589249175    -1.373888333181    -3.002461950844
H      5.166044027831     0.644711464486    -3.631181790130
O      2.899898957417     1.223670776096    -2.710127605986
H      1.634089899094     0.840559759813    -2.964974148893

