# STO-3G

title

0 1
C     -0.275952200262     1.123992714753    -2.331408272955
C     -0.977013401355    -0.023350814507    -2.805756769295
C     -2.358617990649    -0.183610907038    -2.511176630496
C     -3.027341416167     0.786858807634    -1.761846041529
C     -2.337890003383     1.942164067200    -1.312777135056
C     -0.980062563891     2.113157743211    -1.592682656229
H      0.752625268346     1.303282488212    -2.632991209029
H     -0.504553929574    -0.679124392003    -3.528377874006
H     -2.889948390612    -1.056722161660    -2.879859522968
H     -4.079200521227     0.660601394680    -1.520633175656
H     -2.870668124843     2.694926800613    -0.737638013864
H     -0.454947624815     2.999340734435    -1.249184691519
C      1.955709076871     2.085824301251     0.341523594845
H      1.077192829111     2.193857658580     0.972848526245
H      1.778839395551     1.885920919491    -0.708824318154
C      3.230037944424     2.125404624535     0.790061882266
H      4.036536787703     1.965200098844     0.087488034056
C      3.633900818422     2.319937903488     2.191269982756
O      2.759039157177     2.386524659317     3.097772237450
O      5.005032784511     2.323022810105     2.503537317328
C      5.333254178337     2.507485817969     3.887792820816
H      6.438016849825     2.499465610994     4.008100177026
H      4.950486803712     3.485825757951     4.257686765165
H      4.909186438386     1.685959860081     4.508370275725
Pd     0.478506948307    -0.674418528413    -0.852072696947
C     -0.968870459715    -1.090126317080     1.521418256815
O     -0.984955105222    -0.277162211437     0.448677787464
O     -1.985506648331    -1.433947303934     2.155035183892
C      0.458467116742    -1.521324875821     1.988331402329
H      0.386874546683    -2.568074344376     2.312888294359
C      0.863614509178    -0.647026811789     3.166766068616
H      1.801796729039    -0.993520961685     3.636225814984
H      0.998823477741     0.399953208043     2.822806310916
H      0.072232556390    -0.664158370356     3.946042725778
N      1.430644662239    -1.328579145676     0.869309346469
C      2.735816701502    -1.452969871982     0.926346207716
O      3.589310805696    -0.906417365682     0.105272458354
C      3.394809391890    -2.301433407296     1.941605050873
H      3.968504158779    -1.639995120872     2.613617828383
H      2.666439615498    -2.906799071531     2.499521513860
H      4.087198603885    -2.982050411925     1.413893244438
N      1.795036432845    -1.346126826880    -2.301020983525
C      1.444412143886    -2.457954880960    -3.016898410443
C      2.102832022918    -2.755533350042    -4.191614294266
C      3.133074108556    -1.957719731860    -4.642389578231
C      3.503692715527    -0.878102230648    -3.884571152168
C      2.822621326597    -0.604340175107    -2.677354527294
H      0.621446091359    -3.078428801009    -2.681299887754
H      1.804922093507    -3.620088081302    -4.762276464731
H      3.653446344569    -2.191625205508    -5.567461714153
H      4.323973821405    -0.243861713196    -4.154723150687
O      3.273418413780     0.361852001353    -1.943791112493
H      3.335271897999    -0.222251790319    -0.709351517979

