# STO-3G

title

0 1
C      2.114084755971     0.503259277867     1.270110111696
C      1.818151932155    -0.425259913878     2.303567898818
C      1.351567744157     0.029823458055     3.540000071256
C      1.172489013815     1.416169213064     3.778658577165
C      1.484268012380     2.345662376699     2.783916305360
C      1.960298408764     1.899015720313     1.520473169122
H      2.554716011063     0.156543886806     0.339603737754
H      1.955531308173    -1.487694192674     2.126375957670
H      1.115539186637    -0.684103995985     4.324842330525
H      0.793058103572     1.752239148541     4.739714732200
H      1.375719784574     3.410361768817     2.972061105368
H      2.368197976876     2.616850952868     0.817198306748
C      0.103172000719    -2.300283812431    -0.283269466870
H     -0.760657855590    -2.744312017965    -0.773152651828
H     -0.103019381354    -1.664279361434     0.571764433828
C      1.360014761897    -2.471390416091    -0.750769156375
H      2.192799247792    -1.969277571505    -0.279704414547
C      1.717888812452    -3.253471732041    -1.945629799497
O      0.822930326375    -3.876378374876    -2.582052924068
O      3.079140853059    -3.407365052062    -2.266788458075
C      3.360218581850    -4.169653621328    -3.448511587261
H      4.459187611540    -4.212780628588    -3.605276050311
H      2.981027788310    -5.211732343507    -3.346541128574
H      2.898842890732    -3.692805448311    -4.342985159096
Pd     0.082848079995     1.133205292538     0.050682042626
C     -2.372194537252     0.908715020655     1.371706227941
O     -1.071078930597     0.650740649032     1.614819634250
O     -3.188694606384     1.270701596949     2.239987652633
C     -2.825975196839     0.627146210269    -0.100612763839
H     -3.524289003579     1.425051425141    -0.386890001847
C     -3.545584296578    -0.715434302537    -0.126923240201
H     -4.039143172048    -0.902973639769    -1.097180271014
H     -2.820796648120    -1.529110775254     0.079421038708
H     -4.335649908118    -0.738926096126     0.654005749888
N     -1.619700705006     0.578680471864    -0.979111477898
C     -1.536966008087     0.161863475663    -2.224362881887
O     -0.453147755371    -0.237376123189    -2.820212539973
C     -2.711734821817     0.178556207007    -3.121153627186
H     -2.990953876930    -0.867615745012    -3.334653328792
H     -3.544565750186     0.744346578370    -2.678297721673
H     -2.411185467901     0.677366245559    -4.060534873525
N      1.195322800840     1.965857242461    -1.481834891500
C      1.254695900435     3.331378462952    -1.542851741108
C      2.224906767187     3.944447667802    -2.307835007762
C      3.124775833543     3.194640977225    -3.035482039697
C      3.016484079041     1.829349323902    -3.000793845611
C      2.002071029389     1.228560283188    -2.222865484825
H      0.566017850284     3.928054074163    -0.955886462473
H      2.279962488969     5.020631255108    -2.332298417652
H      3.890389165658     3.675801658155    -3.638413782070
H      3.656408870137     1.188659159808    -3.573784194771
O      1.879595048719    -0.058786353635    -2.297579144920
H      0.598899463050    -0.265291799420    -2.414475564355

