# STO-3G

title

0 1
C      4.040934017822    -0.928107946130    -0.060581746149
C      3.289234162504    -2.104770676396    -0.362730668363
C      2.928653887774    -2.994612090322     0.686607757062
C      3.306617561519    -2.716873089555     2.001844692276
C      4.071981444065    -1.559737365224     2.302477954883
C      4.444677064922    -0.682219156356     1.284888014523
H      4.458245105904    -0.322426064015    -0.857663663958
H      3.105597285134    -2.393250902140    -1.393736029898
H      2.354037233651    -3.887154177595     0.454544858594
H      3.011627346063    -3.388450264077     2.803462219398
H      4.362402955804    -1.358788689472     3.329874264427
H      5.051523824840     0.193317607154     1.502063597944
C      2.496813418837     0.344516697044    -2.265336155779
H      2.921456340810    -0.546367099370    -2.744624712528
H      3.284955967590     1.090260969573    -2.115646972342
C      1.379923285722     0.929189212331    -3.118577450662
H      1.771008903791     1.503901232286    -3.956432508426
C      0.328226782193    -0.004400699902    -3.616977917362
O      0.234299108319    -1.159120790397    -3.109514336465
O     -0.387438552474     0.332200102920    -4.781762115000
C     -1.346186330346    -0.635446408173    -5.230462232704
H     -1.853090952514    -0.254227308151    -6.142898853379
H     -0.847051277203    -1.597343459717    -5.486598110284
H     -2.120233267525    -0.815242095830    -4.450545781721
Pd     1.834430718572    -0.171440247872    -0.395676974110
C     -0.102641951349    -0.021234259458     1.799168692320
O      1.131874901669    -0.436377185284     1.570383824728
O     -0.666723768145     0.056340150553     2.917127251502
C     -0.908736223152     0.421365922090     0.517466194518
H     -1.601548044327     1.207983282775     0.845705064123
C     -1.710856596513    -0.726783249116    -0.054198844144
H     -2.312183197591    -0.370272782626    -0.915600791266
H     -1.020775276032    -1.520171248054    -0.411209832926
H     -2.389823855840    -1.144388344345     0.718138068117
N      0.013864639568     0.847121777396    -0.553796658322
C     -0.075478365899     1.886769182850    -1.293887582851
O      0.730023651932     2.101200063581    -2.374336594395
C     -1.041176978778     2.967853739190    -1.035044274614
H     -0.829374251343     3.378024072649    -0.032516316740
H     -0.903937402641     3.756299599763    -1.796630705325
H     -2.062061760055     2.556509746770    -1.105952163002
N      2.430610797839     2.631072126286     0.572860275353
C      2.713871097145     2.396392373825     1.892306921985
C      3.958601821495     2.733947683922     2.397338011335
C      4.915329692580     3.305421849339     1.582318726915
C      4.602422031070     3.517977009667     0.263509191864
C      3.315742777536     3.161233433654    -0.190191008419
H      1.964429331763     1.955100987690     2.538268551492
H      4.171010816510     2.549744004610     3.437743524639
H      5.891580251293     3.576742086675     1.974996639526
H      5.289233399780     3.961373929930    -0.428930897435
O      3.103823681991     3.401960193266    -1.506124147812
H      2.203695115423     3.097365940212    -1.786420451865

