# STO-3G

title

0 1
C      3.077321381970     0.211989378474     0.135545640313
C      3.298651538051     0.221581909705    -1.275200461007
C      3.663502419463    -0.984336519510    -1.938033672056
C      3.810582338637    -2.166722333148    -1.207457367605
C      3.608541632321    -2.173103857246     0.197489780192
C      3.253845148295    -0.999762131625     0.865188200569
H      2.928684710617     1.141339188574     0.678209935393
H      3.329155300292     1.158409637648    -1.822592177865
H      3.838620973080    -0.972621507192    -3.010597875501
H      4.079922192508    -3.089440569112    -1.715229287261
H      3.714141089581    -3.100037988770     0.753930654024
H      3.076219780343    -1.007972803647     1.935576761673
C      0.971785272442     2.299014182585    -1.033463894490
H      0.732114991250     2.584531341600    -2.062519191919
H      1.975447096034     2.661292886277    -0.777050156038
C     -0.055468590740     2.814492643131    -0.014403664990
H      0.054940008049     2.242220420542     0.907742865404
C     -0.073252492482     4.277052293858     0.312200606166
O      0.531003035753     5.086206544070    -0.448440836682
O     -0.479241162851     4.673205599698     1.602946928722
C     -0.408054435994     6.078699809291     1.877761742531
H     -0.767557813863     6.269406080484     2.911423217471
H      0.641034959670     6.443836595742     1.801034878725
H     -1.052277502958     6.650720360886     1.172355726065
Pd     0.922009386097     0.279810153085    -0.796314199701
C     -0.778697693488    -2.118362416053    -0.804362259767
O      0.361418218737    -1.717311167169    -0.228269003683
O     -1.304897366939    -3.244054581522    -0.696927031605
C     -1.473972353092    -1.019538781710    -1.695640324737
H     -2.551234359658    -1.223512914789    -1.638292412789
C     -1.035694116641    -1.115701557705    -3.140030275457
H     -1.555219497667    -0.339752978677    -3.739514943355
H      0.058517336572    -0.954117375351    -3.213968842113
H     -1.286718358579    -2.117329423231    -3.548139110714
N     -1.084012210398     0.324631197004    -1.219354787815
C     -1.854968525532     1.313814784671    -0.932170104576
O     -1.459841286083     2.503308245110    -0.454621685235
C     -3.316682771243     1.228623982719    -1.117403153656
H     -3.522572121432     0.989871678136    -2.173255148432
H     -3.701618100892     0.457129087903    -0.430477873850
H     -3.773866753092     2.202837908906    -0.862179247491
N     -0.966779540499     0.686048498387     2.170540769357
C     -1.735461739111     1.612418335342     2.826050026914
C     -1.757355190518     1.641268698937     4.208814321577
C     -1.008856629234     0.743237926542     4.939014166237
C     -0.255109542758    -0.177974515868     4.259936184840
C     -0.278304514340    -0.174495860864     2.846522252124
H     -2.315562687991     2.329877471353     2.256843156318
H     -2.357761623882     2.381016747448     4.710912027468
H     -1.018785645039     0.763450951416     6.025336245048
H      0.340445029937    -0.913345485854     4.761720350292
O      0.486047327717    -1.129630495749     2.308660500760
H      0.391500023416    -1.328630384363     1.315168411106

