# STO-3G

title

0 1
C      0.619324036701     1.153531644703     2.214518446499
C      1.012581397526     2.376294481538     2.796887961750
C      2.292512394549     2.510174992730     3.378472540354
C      3.177088948353     1.406839832335     3.393817997057
C      2.770054401043     0.173713250277     2.839538314972
C      1.494758086908     0.048266850969     2.250649759980
H     -0.341645473817     1.086182122207     1.712961006198
H      0.332201220305     3.223705569514     2.777426831105
H      2.591192360241     3.453323975994     3.830341080161
H      4.158228159671     1.500891127021     3.853782517363
H      3.441661742004    -0.681146260552     2.860274735587
H      1.204062131488    -0.893092308798     1.793995915352
C      0.179022584889     2.474825860178    -1.379633047893
H      1.155782276985     2.933156708099    -1.465736130696
H     -0.382594101056     2.632499175380    -0.465294543255
C     -0.448140044783     1.832270847961    -2.442511627791
H     -1.472461196445     1.520896028820    -2.316132218217
C      0.090105063224     1.714840153535    -3.807537579802
O      1.259490885657     2.106835112176    -4.062579075579
O     -0.664336781511     1.009038811956    -4.761389622084
C     -0.066841592739     0.875523063018    -6.058946922117
H     -0.754103376085     0.311264476557    -6.725600379411
H      0.116433909852     1.875191245668    -6.514797245699
H      0.894713036908     0.316788256426    -5.997057194759
Pd     0.570841805742     0.217946383165    -1.164197531537
C      0.057691393241    -2.586401765598    -0.848839793326
O      0.193562382556    -3.812902581053    -0.691366334431
O      1.087581689711    -1.712015618767    -0.773904687768
C     -1.319497644111    -1.929674882123    -1.179832288634
H     -2.077467102720    -2.513049394399    -0.641411211911
C     -1.621994278537    -2.000284554495    -2.662347993431
H     -2.615871401953    -1.550944762354    -2.863524085683
H     -0.856355049935    -1.432196417951    -3.229734333396
H     -1.624440708119    -3.056935398532    -3.003198993502
N     -1.272749446912    -0.506933527594    -0.801278972670
C     -2.186436533436     0.197328884625    -0.110855890907
O     -2.035076913803     1.411138922034     0.240739505855
C     -3.465668416487    -0.462954067675     0.247088130857
H     -4.115877100623     0.282083885312     0.741128234877
H     -3.947165692418    -0.817988331324    -0.678736551996
H     -3.256526896785    -1.286722569354     0.950758526896
N      2.619409391737     0.554756090485    -1.378128445696
C      3.278447972193    -0.358153206935    -2.158913537858
C      4.655438104838    -0.457526342271    -2.092285184131
C      5.374983012035     0.359397514582    -1.248348524493
C      4.691820099753     1.274283853391    -0.487966936314
C      3.281864519151     1.336638190759    -0.598509289307
H      2.718188445986    -1.005315059784    -2.823779285761
H      5.162331441673    -1.185315593135    -2.703926177981
H      6.458036116757     0.287151957948    -1.195618177515
H      5.202645692214     1.956743423619     0.158125969365
O      2.638096137913     2.267062599226     0.121904173852
H      2.944724966752     2.408348129305     1.043340356907

