# STO-3G

title

0 1
C      0.660862099560    -0.798527109984     4.028087679004
C      0.312731192169    -2.043740761117     4.592555586689
C      0.039459715676    -2.141343228174     5.971976644817
C      0.122917215787    -0.996195953894     6.787028682994
C      0.483096198005     0.246207682253     6.224640953744
C      0.752840227872     0.348663210646     4.846898351971
H      0.895977058620    -0.725431422228     2.967275980528
H      0.261078110614    -2.933736026797     3.968366818764
H     -0.231875879110    -3.101498198746     6.404217486144
H     -0.084383739647    -1.071387628287     7.852086088894
H      0.561390353362     1.127102703174     6.857105664997
H      1.049977649885     1.301468562868     4.417259511979
C     -2.150546783877     1.098393547701     2.464422959513
H     -2.774231692705     0.251892248012     2.743198585362
H     -1.440137989159     1.445161873393     3.205784387060
C     -2.394973503947     1.844474798476     1.313107956282
H     -1.837636490029     2.754548947320     1.151454844879
C     -3.526545796519     1.610662213103     0.398787284404
O     -4.389862336783     0.736067121544     0.675842336901
O     -3.576148342769     2.331110356937    -0.806480593543
C     -4.672030464281     2.015966042520    -1.677459717824
H     -4.607043821228     2.641277930831    -2.593910271998
H     -4.640605035450     0.944890611760    -1.982650870675
H     -5.646035769884     2.228290821926    -1.180531332394
Pd    -0.575008101696     0.480054911561     0.917421562951
C      1.788284399515     1.832611466244     1.754687754920
O      2.508120296568     2.499170153200     2.519276340959
O      0.446583770626     1.994968048470     1.704089054215
C      2.355156732209     0.770642957622     0.776349316019
H      3.172705771132     0.288846414120     1.330329630995
C      2.923214874832     1.450211763042    -0.457339404648
H      3.431828809943     0.713043255513    -1.109065265526
H      2.098768431324     1.925266691133    -1.029225554312
H      3.660293973581     2.227586320303    -0.163476274625
N      1.280689093496    -0.161859514148     0.352694428306
C      1.433171472910    -1.272986428318    -0.415166168054
O      0.500735510554    -1.812919875206    -1.074191718149
C      2.753004101776    -1.954948355077    -0.490472122295
H      3.125198847797    -1.844197117360    -1.522878524682
H      3.476376002155    -1.565141277465     0.234413917512
H      2.581255294880    -3.025493941553    -0.277853659904
N     -1.766745071831    -1.037973056320     0.187847205043
C     -2.118485802919    -1.026615714538    -1.137088122144
C     -3.007137366145    -1.965743924567    -1.624311157356
C     -3.507289399508    -2.946132722670    -0.795093783976
C     -3.103365508175    -2.959106703763     0.514911185733
C     -2.212282839576    -1.967517138212     0.967728591418
H     -1.725861224316    -0.258021754578    -1.792691739656
H     -3.285951602860    -1.942472638954    -2.663729882572
H     -4.195916818082    -3.696642833457    -1.173114277736
H     -3.443912966203    -3.700114430096     1.208737452198
O     -1.867600797125    -2.094651766315     2.253371434139
H     -1.193720794913    -1.444264049207     2.562901554601

