# STO-3G

title

0 1
C      0.216558128773     2.535880439937    -1.884017266043
C      1.572012435271     2.853329979567    -2.104799510323
C      1.937644688892     4.163080467753    -2.472783995929
C      0.949022578696     5.157336638339    -2.619497859163
C     -0.406199454866     4.838998182426    -2.403116985035
C     -0.772566901922     3.527949802157    -2.037852744686
H     -0.043409646983     1.521701107497    -1.596543796990
H      2.320684628617     2.075056270923    -1.985869813223
H      2.983793352560     4.406042375865    -2.646177299447
H      1.231181928532     6.168865653863    -2.903420236453
H     -1.170828035924     5.603858847111    -2.518451574617
H     -1.822251610428     3.291257270449    -1.875690471695
C     -2.162069142510     0.667518704961    -0.116637576256
H     -2.153203314226     0.075786485114    -1.030060313877
H     -1.731710774908     1.658175003260    -0.169447378474
C     -2.909020402353     0.319378014992     1.013825608461
H     -2.957780378005     1.045776615072     1.811939242945
C     -3.860882588737    -0.801752932733     1.056498138478
O     -4.367514280359    -1.127655503483     2.162214551420
O     -4.140139084467    -1.525702628018    -0.117218257081
C     -5.089449280665    -2.592960559522     0.011031063275
H     -5.219846614438    -3.087464161406    -0.975467740499
H     -4.731924752430    -3.357983395817     0.735950894153
H     -6.079187644054    -2.203733165919     0.340814694093
Pd    -0.691203642276    -0.276738381553     1.277586572751
C      1.692625078643     0.070216397230     0.730912343440
O      1.823328611731    -0.028091125688    -0.540987137935
O      1.321770298793    -0.956983272074     1.495573104245
C      1.629019867911     1.452348453713     1.442130459202
H      2.018568976639     2.223476726570     0.768348977304
C      2.377727814957     1.453652434851     2.759198651853
H      2.348423757322     2.456632571388     3.224522051673
H      1.907021136289     0.727799459007     3.456060189551
H      3.437110929720     1.167453391452     2.594599839691
N      0.166671375479     1.560364376495     1.703239570231
C     -0.548999290498     2.696157867532     1.860052308415
O     -1.798968749234     2.719521919158     2.056802172788
C      0.146134910055     4.001892975691     1.740483415365
H      0.908785093160     4.080311152168     2.527947802387
H      0.578243922240     4.079456519688     0.728168124333
H     -0.597227978850     4.809593208475     1.874284289962
N     -1.066281318991    -2.180158817525     0.579263495787
C     -1.713081922902    -3.110830001757     1.348181746527
C     -1.931812937586    -4.381336174912     0.857969431709
C     -1.498824620379    -4.726998658550    -0.402280103218
C     -0.818501892112    -3.791969739009    -1.136152891177
C     -0.578312143943    -2.511096864436    -0.590381186092
H     -2.077088893395    -2.839326336100     2.332397359744
H     -2.452573752808    -5.101712913723     1.466849990800
H     -1.675748769197    -5.723561671277    -0.797703095615
H     -0.426824374301    -4.010228248187    -2.109311793161
O      0.148515554883    -1.734592048848    -1.361454635537
H      0.859086111414    -1.028464693528    -1.017303361733

