# STO-3G

title

0 1
C      0.269775824649     2.139302844753    -2.049949648074
C      0.853273850346     1.479668081845    -3.150433465187
C      0.665186421376     1.984287610468    -4.452942807026
C     -0.102289863594     3.148913012031    -4.653882556941
C     -0.678146118526     3.811171829675    -3.550588879123
C     -0.493497270585     3.308667876088    -2.247145662029
H      0.414511487733     1.756827396017    -1.041196587560
H      1.459763432519     0.591726008136    -2.988025959404
H      1.119393538255     1.476972069288    -5.301493487718
H     -0.244059084684     3.539925620288    -5.659236055791
H     -1.262910874260     4.715533836734    -3.704116226269
H     -0.921811155651     3.812749520847    -1.385153967794
C     -2.370147581076     0.818365369365    -0.017505157497
H     -2.673512836154     0.104739554445    -0.776593589773
H     -1.983233292124     1.777095099885    -0.348456370834
C     -2.643041131619     0.667528127604     1.338749565188
H     -2.411755969565     1.495978553441     1.988877948956
C     -3.458694655941    -0.390612357353     1.953220959257
O     -3.446191624390    -0.511410301288     3.205919244746
O     -4.208528014031    -1.261663940736     1.142498676277
C     -5.003050614070    -2.235234553590     1.835085328046
H     -5.553818664060    -2.856006899491     1.095691751989
H     -4.361748168881    -2.909033256232     2.447601896511
H     -5.751215053395    -1.738356629312     2.494154805874
Pd    -0.395587898186     0.151574440079     0.935324094897
C      2.128547517436     0.517010474731     2.337047355129
O      3.332309563432     0.508933460784     2.613734186616
O      1.596802369265    -0.172651328901     1.285567701690
C      1.036473675886     1.306244392552     3.113905294588
H      1.550889749915     2.129595743155     3.623608611681
C      0.355235551122     0.452442807211     4.161127171137
H     -0.396403944949     1.062101223887     4.704410987760
H     -0.167142758257    -0.399317130719     3.679486877516
H      1.101473051053     0.065084568845     4.886187361448
N      0.007270928514     1.728782513520     2.147818449454
C     -0.352900051646     2.989435601052     1.828038281164
O     -1.159561926957     3.279266446245     0.893926736898
C      0.187436654477     4.107751479215     2.637869199519
H     -0.082933110421     3.939287712422     3.693962684041
H      1.278795952063     4.154912754289     2.486749184978
H     -0.268590836366     5.052208086926     2.286481629507
N     -0.370233551037    -1.518955384891    -0.373844276760
C     -1.438152659424    -2.360465036530    -0.544116428245
C     -1.445929611318    -3.284228323665    -1.568236372673
C     -0.375462736461    -3.387849855919    -2.426054726675
C      0.704663724523    -2.576652554241    -2.211446411549
C      0.686186067056    -1.657508837952    -1.140988257817
H     -2.281056841678    -2.303522613405     0.123017748207
H     -2.302318594578    -3.925898422102    -1.697205851389
H     -0.378413112278    -4.110151402423    -3.238195299513
H      1.585794445526    -2.631287860154    -2.819673583201
O      1.802923818691    -0.983183786703    -0.998203978485
H      1.926128968520    -0.550565619883    -0.051159059325

