# STO-3G

title

0 1
C      0.408564707380     2.796767953570    -1.625060372571
C      1.788913620231     3.054182223400    -1.749241250879
C      2.253372211575     4.381996215960    -1.825833418688
C      1.339155320513     5.454069624093    -1.777504952991
C     -0.040802789527     5.196597922168    -1.658876895997
C     -0.506033571077     3.868235641876    -1.585303563659
H      0.069501138217     1.766716206759    -1.563631419000
H      2.479199250087     2.216052137533    -1.784818409730
H      3.318589123801     4.579137953321    -1.925607398699
H      1.697662304896     6.479416977150    -1.836531293727
H     -0.748486410760     6.021821040608    -1.625490168198
H     -1.574303958582     3.679266301323    -1.499180043061
C     -2.145244855018     0.817310062314    -0.228683645148
H     -2.245864622810     0.407465012599    -1.231939478853
H     -1.609567810672     1.752886838959    -0.133812558468
C     -2.879817062715     0.346114217463     0.865869844562
H     -2.805797327131     0.918676120330     1.778991073503
C     -3.956624900825    -0.654671968060     0.784057880635
O     -4.318832542617    -1.103407470892    -0.336146864395
O     -4.518044223346    -1.139303249584     1.977839451018
C     -5.582630913565    -2.089671081764     1.829110489084
H     -5.946989165801    -2.394843202864     2.833764623314
H     -6.436684410834    -1.641374540371     1.272050736230
H     -5.231054073748    -3.000323960365     1.293117642362
Pd    -0.726330254561    -0.505702471577     0.872814394009
C      1.695793977400    -0.267811947137     0.404780009157
O      1.851780760350    -0.092463444645    -0.855120619534
O      1.206370498443    -1.398041726767     0.916016737132
C      1.744419932944     0.917421697972     1.408808511992
H      2.218611458946     1.778794466890     0.925300044685
C      2.463282192903     0.554003881615     2.691892373251
H      2.502503558242     1.422216009474     3.376411811718
H      1.921594102584    -0.271034262949     3.201592843343
H      3.499749676511     0.227198029728     2.467778547519
N      0.293944391307     1.104402292210     1.692981409578
C     -0.304722553632     2.247711220494     2.096576915868
O     -1.543038683475     2.349897426039     2.336776033108
C      0.513445191742     3.480586736794     2.216286374195
H      1.297169673516     3.326151271017     2.971284681225
H      0.929551572389     3.723057606029     1.223355490448
H     -0.143596450672     4.309371409489     2.539233190473
N     -1.266758961065    -2.150853074330    -0.247122466095
C     -2.038533566119    -3.156262801571     0.271158499710
C     -2.379866122516    -4.241131476292    -0.508239695135
C     -1.953793436231    -4.322244017247    -1.814557083488
C     -1.150987836623    -3.324893033919    -2.300432259759
C     -0.791266764281    -2.244209979312    -1.464557487337
H     -2.396211712002    -3.089725351165     1.291912330650
H     -3.001844536703    -5.017466667498    -0.095766149588
H     -2.233159630350    -5.165941300522    -2.439751514016
H     -0.764160160435    -3.345163520278    -3.299309960542
O      0.030408728119    -1.391200771029    -2.032541900281
H      0.798685467852    -0.857708594723    -1.539748197966

