# STO-3G

title

0 1
C      0.527797275395    -0.683919257497    -2.236157833457
C      1.248693595289     0.011901787207    -3.227373920360
C      0.595833404839     0.469698527575    -4.388887052180
C     -0.780379335753     0.223454077844    -4.565449365663
C     -1.500887437834    -0.477744184336    -3.577898760258
C     -0.849517248965    -0.931451941929    -2.413839551965
H      1.038328812730    -1.042594328036    -1.345956670429
H      2.313736595205     0.199983869289    -3.099655468342
H      1.157464983281     1.010364874375    -5.147858280104
H     -1.283632250039     0.572343425519    -5.464706860459
H     -2.563236194600    -0.668838353310    -3.711606299634
H     -1.415560255085    -1.445838133893    -1.643818645129
C      2.352878411873     1.255668037541     1.752232750093
H      1.911050092956     2.039309947436     2.362687390278
H      2.918047845490     0.484949453741     2.265775786965
C      2.411407972631     1.348935740218     0.363295795417
H      2.988584445878     0.620080508521    -0.186531503040
C      1.968990345018     2.528317513340    -0.399989610545
O      2.203538824152     2.575789022215    -1.635086673820
O      1.360304966039     3.603745315298     0.271454950149
C      0.915593545809     4.688360727661    -0.554558323879
H      0.436536949576     5.462167081938     0.082922784259
H      1.772984467394     5.156321666596    -1.089281535760
H      0.162640160365     4.337597955275    -1.296327784607
Pd     0.727568033013    -0.134559323383     1.004941924567
C      1.829952480884    -2.706463956337     1.506666745183
O      2.664288973365    -3.520536511527     1.932893926446
O      2.183836208809    -1.489883488183     1.021527090093
C      0.306927837106    -3.018779538876     1.445439642611
H      0.080624304520    -3.536426553912     2.388826067154
C      0.025182072927    -3.956756879673     0.282775298466
H     -1.032533610985    -4.283189635472     0.284851805825
H      0.236883459603    -3.436390823199    -0.674644239255
H      0.668227895637    -4.859811140474     0.353630322763
N     -0.465729332907    -1.767530432291     1.252712608257
C     -1.815831099584    -1.642474161066     1.174005362375
O     -2.402550271274    -0.670243711840     0.616863623850
C     -2.696448241613    -2.666716159739     1.794432207740
H     -3.253159216706    -3.162744535476     0.981429255408
H     -2.135859792617    -3.395708179034     2.392285238651
H     -3.406557986825    -2.134010217427     2.452095376763
N     -0.697994826236     1.360977819330     1.098411139342
C     -1.338039451536     1.835765567733    -0.017124563259
C     -2.233850462912     2.883038910722     0.097846822129
C     -2.521602475887     3.423331035216     1.333146429183
C     -1.892396700261     2.902241765691     2.435048485701
C     -0.983252172111     1.842381467035     2.262353438223
H     -1.109173470416     1.424050609544    -0.990911419444
H     -2.725029742967     3.254702562700    -0.785499874583
H     -3.237121517832     4.234937945615     1.431864432957
H     -2.084850892210     3.259680709714     3.425907358054
O     -0.452945799703     1.365173458199     3.397043215843
H      0.087984639890     0.555597412992     3.216029637489

