# STO-3G

title

0 1
C     -1.509048796725     2.599728265930    -0.587335581284
C     -0.981412296935     3.910058547419    -0.628340871695
C     -0.517606771437     4.452138941625    -1.842086027560
C     -0.572294577515     3.682554305834    -3.024788106094
C     -1.093117699888     2.374590242310    -2.988682454879
C     -1.567226742219     1.834200696886    -1.774025735350
H     -1.901524475743     2.214720949850     0.351319008952
H     -0.943618822775     4.503268673888     0.283832686739
H     -0.125644429592     5.466896675484    -1.868451539906
H     -0.222363117685     4.104474622551    -3.964690236855
H     -1.140720488361     1.780020554137    -3.898301837925
H     -1.984644428761     0.831287017567    -1.758050246526
C      0.779536561568     0.169459008514     2.486205557399
H      1.739208496412    -0.332115265893     2.393704561230
H      0.001723858922    -0.381937989043     3.002447695998
C      0.609120743395     1.539486179752     2.217215846742
H     -0.340278106567     1.994565673762     2.459445982709
C      1.720709814093     2.453945330390     1.905655283659
O      1.464144605068     3.658119926637     1.640951281621
O      3.045021543098     1.979599178113     1.939725277534
C      4.063754960088     2.932576881786     1.608046110008
H      5.057337080959     2.437643934346     1.655796614577
H      3.920843084931     3.321504951507     0.574926440196
H      4.059988741247     3.781835596021     2.328085787970
Pd    -0.091939707144     0.253342450355     0.447812610073
C     -0.712121509020    -2.099315569364     0.107305159356
O      0.225056240114    -2.778836809839     0.676049238439
O     -0.534043674984    -1.383733432858    -0.987268446389
C     -2.056215044864    -1.843073419227     0.856191440169
H     -2.119954011023    -2.519236200759     1.717392398326
C     -3.251572449045    -2.020511217023    -0.058956182556
H     -4.194118096689    -2.014378479394     0.518481010985
H     -3.273746704764    -1.200425208873    -0.807187027986
H     -3.181501556899    -2.992225285969    -0.590931226232
N     -1.897104119040    -0.408430722054     1.226525900531
C     -2.574043057754     0.302908779309     2.148118716569
O     -2.283476845942     1.498496915119     2.461731157785
C     -3.727617308079    -0.321255039539     2.838742144966
H     -4.536791141175    -0.463115122617     2.107422305398
H     -3.404735775648    -1.266106315222     3.302590471060
H     -4.080173976395     0.370869181371     3.626435028490
N      1.743558191719     0.447596437513    -0.447098517559
C      2.036817152192     1.569242139089    -1.175945852532
C      3.252943036088     1.680467623283    -1.816119171195
C      4.180347583747     0.667631819903    -1.733709301961
C      3.857857601770    -0.454301750680    -1.018381620059
C      2.593567218629    -0.552362768355    -0.393322221151
H      1.330999746353     2.384756304428    -1.218816733143
H      3.473226330616     2.572838537115    -2.377936358226
H      5.142206305333     0.752295306742    -2.231935982986
H      4.529617990785    -1.284423108088    -0.933307433501
O      2.395887188836    -1.692567289746     0.212944486780
H      1.441786932490    -2.181779947282     0.403525786031

