# STO-3G

title

0 1
C     -1.486791939515    -2.684848618153     0.573648551055
C     -2.391992289136    -2.511673546668     1.639317333737
C     -2.702672850999    -3.596099060330     2.484329940441
C     -2.108104788030    -4.853827984817     2.261944779534
C     -1.204383063701    -5.026934442327     1.193932107716
C     -0.893537252063    -3.943339083596     0.349530021453
H     -1.238264610864    -1.861373585626    -0.088000684135
H     -2.860967854311    -1.544373504380     1.812383142627
H     -3.402826160736    -3.462556913547     3.306083684445
H     -2.348678249566    -5.691333002678     2.913265877738
H     -0.747763763793    -5.998915540460     1.020204940960
H     -0.193468017345    -4.057183875804    -0.473123808316
C     -0.909251877814     0.672338939579     0.792453227873
H     -1.783932276348     0.213479875079     0.337181850378
H     -0.315607738506     0.036408178988     1.438944988068
C     -0.686599192185     2.050910648123     0.745323304751
H      0.148516823356     2.470762005957     1.292323507465
C     -1.658689405290     3.005694915838     0.186671118735
O     -1.324589506819     4.212611893937     0.057980198084
O     -2.908745049576     2.542327550710    -0.263930155086
C     -3.789522731513     3.533927204421    -0.809627053806
H     -4.735321136168     3.047188382006    -1.131064979953
H     -4.035547955020     4.306987465647    -0.046895954601
H     -3.333874460842     4.023271069286    -1.699384694100
Pd     0.630366968254     0.956771944769    -0.815522690725
C      1.781155898948    -1.136984933950    -1.412011526705
O      0.914142446278    -2.048616166252    -1.649896156953
O      1.911825356468    -0.056551507232    -2.184024952938
C      2.578518806398    -1.028185566498    -0.066884446417
H      3.652186557864    -1.005164563449    -0.301073487554
C      2.270858464055    -2.155058304915     0.895870177980
H      2.926884832174    -2.098500050491     1.784411867361
H      1.215465654647    -2.088012851342     1.228503358167
H      2.432644843123    -3.135075427525     0.400611177567
N      2.055437696576     0.248719261387     0.477751266512
C      2.643230424531     1.124119807138     1.319100162423
O      2.138747958198     2.244031105619     1.626926942681
C      3.935112037559     0.751474240142     1.943828076962
H      4.270701654164     1.596706224226     2.572501785657
H      3.774956468993    -0.130266370117     2.581088154858
H      4.680017475744     0.567010241445     1.152385570102
N     -0.683915318564     1.314832200491    -2.367707165252
C     -0.838331653784     2.585386725714    -2.856056468842
C     -1.718805690892     2.827089143152    -3.889599184093
C     -2.443186822734     1.796629108245    -4.444523938809
C     -2.242312091602     0.529327954643    -3.966146758335
C     -1.308087381337     0.310565791509    -2.929268628472
H     -0.284502602212     3.405226259414    -2.413305095907
H     -1.840118787289     3.832678989644    -4.257429552576
H     -3.143724929400     1.981463180889    -5.254421553597
H     -2.751881061421    -0.319107644281    -4.377295011003
O     -1.163374140085    -0.955855391519    -2.614146416218
H     -0.285070757745    -1.392730657630    -2.238415481940

