# STO-3G

title

0 1
C     -1.952491298645    -1.969179810249     0.119551577973
C     -2.789573911594    -1.823534533927     1.244211040088
C     -2.927154151141    -2.880830637031     2.165392428024
C     -2.227125118073    -4.086733726310     1.959897182971
C     -1.399928735545    -4.237085455388     0.828801186354
C     -1.265531929977    -3.181108780224    -0.094554734826
H     -1.846321036509    -1.155746366108    -0.593362665405
H     -3.341543294328    -0.896564935577     1.393836130427
H     -3.576344787890    -2.767674311831     3.030649769277
H     -2.332000568247    -4.904121030716     2.669737430778
H     -0.866292528432    -5.169650535266     0.662040288175
H     -0.636490256127    -3.307772626622    -0.971934894629
C     -0.268482591207     0.944660981135     1.375635573908
H     -1.011653937429     0.154409426837     1.427588389708
H      0.626478664121     0.803717060729     1.964291955566
C     -0.512220248978     2.174164432258     0.773867224253
H      0.231692867927     2.950284138062     0.870186063415
C     -1.845081797426     2.564785699037     0.283822041005
O     -2.034443104915     3.753632506314    -0.085916193403
O     -2.845383349059     1.584565526562     0.144439284974
C     -4.049171097461     2.004676142461    -0.511786039735
H     -4.755453845910     1.148441004787    -0.568628460741
H     -4.542382227285     2.828249677435     0.052631347855
H     -3.834185135863     2.343377572243    -1.550885588885
Pd     0.647339090842     0.676812666943    -0.710172143340
C      2.009529586272    -1.863106421441    -1.150015032013
O      2.197146334421    -3.015087769836    -1.565560312826
O      1.271344552045    -0.946861851571    -1.838331278727
C      2.553898308706    -1.341009992954     0.210324330486
H      3.637298022689    -1.530612313636     0.196698114574
C      1.946278004442    -2.110855150726     1.366113715015
H      2.380131345541    -1.762926177485     2.324816344608
H      0.849674998196    -1.946103342351     1.394172365841
H      2.146354672968    -3.197439600299     1.253372698236
N      2.221574708043     0.074891782515     0.379857720688
C      2.935812827081     1.062657288754     0.953529559251
O      2.508771694812     2.252432831070     1.062305983648
C      4.278010091776     0.741903190492     1.494294340625
H      4.696199412061     1.657908952774     1.950441396562
H      4.170820069536    -0.039498842174     2.263422302587
H      4.926602027032     0.416081178942     0.663248004586
N     -0.618190876649     1.268726558510    -2.292882990064
C     -0.787262006798     2.594500073810    -2.599638870805
C     -1.641635427776     2.966570423234    -3.617491529542
C     -2.316800341754     2.016188396337    -4.349968525276
C     -2.087712510107     0.696397492586    -4.066319058283
C     -1.181546573560     0.353790889075    -3.041099658894
H     -0.267406577338     3.353290672643    -2.026189376953
H     -1.786263486769     4.014293297439    -3.826998185688
H     -2.994595756307     2.305738494530    -5.148638782074
H     -2.539833641137    -0.095216297544    -4.630266641688
O     -0.943097870932    -0.933799545806    -2.924315317221
H     -0.015030309043    -1.139256635592    -2.475478225973

