# STO-3G

title

0 1
C      2.542239133733     1.919937801374     1.553603982917
C      3.048433307154     2.416659731284     2.774429894260
C      4.383085017426     2.855998094608     2.858472782889
C      5.216619681141     2.799624371743     1.722507049796
C      4.715456165463     2.303958300694     0.503342827467
C      3.378730818991     1.865501145173     0.416913601843
H      1.501878218051     1.611340095597     1.487774465306
H      2.402323153578     2.471109688511     3.647505864428
H      4.770477322730     3.240032268522     3.799016978038
H      6.247991530659     3.137884413993     1.788508388315
H      5.358570451457     2.257474067841    -0.371949586906
H      2.996974695836     1.485506564379    -0.528130829106
C      0.809768888408    -0.398087778717     3.302116589980
H      1.847680334251    -0.696905499398     3.424320337463
H      0.539400193615     0.641069847616     3.440077962239
C     -0.226962994037    -1.325862232289     3.280963701811
H     -1.233669932445    -0.943802321948     3.337340572333
C     -0.055388638184    -2.780187659885     3.445641080760
O      1.080949162004    -3.253802383576     3.715480845810
O     -1.164978691609    -3.616604801041     3.235455784350
C     -0.917268813573    -5.024505080088     3.357972742880
H     -1.859389212595    -5.582819285515     3.169084089159
H     -0.157615222086    -5.359424798751     2.614949542525
H     -0.564177691059    -5.275907372921     4.383995052127
Pd     0.167667527600    -0.652638141351     1.089747470183
C     -1.011564241620     0.106898136277    -1.412276961621
O     -1.470037502370    -0.001222479148    -2.561453326656
O     -0.136301423399    -0.786113155644    -0.889523442342
C     -1.353310096931     1.293498663359    -0.474327826040
H     -2.393947847070     1.562176910939    -0.698483983569
C     -0.467851633775     2.485318256140    -0.792801179010
H     -0.656108323691     3.317539118369    -0.086810580304
H      0.596746551785     2.192867930497    -0.715441144938
H     -0.665765966967     2.839067573069    -1.826831108052
N     -1.138828351723     0.908693300616     0.943145840378
C     -1.787542264167     1.453276772911     1.998787205526
O     -1.506937871398     1.210970213591     3.212246110390
C     -2.943629636072     2.354187463335     1.749649434031
H     -2.609394919601     3.234824121525     1.180505971002
H     -3.720930089117     1.783275794787     1.215176923216
H     -3.349139907897     2.687216467547     2.723643827299
N      1.430675062895    -2.271024718390     0.813981347428
C      0.835298810242    -3.366837202190     0.243562444687
C      1.580501274610    -4.500235049529    -0.013692151031
C      2.927006160521    -4.530827615002     0.278883684039
C      3.501960802928    -3.406665001380     0.811915734975
C      2.701534433838    -2.274211778587     1.059954599541
H     -0.226499470486    -3.354030396730     0.025491050768
H      1.102652881404    -5.361184514783    -0.450739554500
H      3.520504345872    -5.418823969302     0.078941677140
H      4.545976148471    -3.357453701428     1.047308074055
O      3.381933544205    -1.228055764497     1.524761069147
H      2.886713321504    -0.374462365741     1.564599406765

