# STO-3G

title

0 1
C     -0.956022501981     1.675743786673    -0.986342397024
C     -1.611662357362     1.078944462048    -2.082107242145
C     -2.920834210742     0.580425033641    -1.929131512792
C     -3.576271257870     0.694213954500    -0.687746631463
C     -2.922001916343     1.300960267539     0.404156922496
C     -1.608238824787     1.786122803694     0.258628347767
H      0.040945913899     2.089766049308    -1.105518295582
H     -1.112626760989     1.009994560723    -3.046682524306
H     -3.426211031957     0.115313664630    -2.772147895014
H     -4.589561551172     0.316598411690    -0.572206220144
H     -3.430606634317     1.392110212182     1.360835956068
H     -1.099258561667     2.242516305454     1.104456385822
C      2.290955268902     1.766796484083     0.118772487527
H      2.305281425938     2.115657775626    -0.912007506386
H      1.429519916199     1.981955627003     0.738643007961
C      3.448282633049     1.335016464236     0.757965493369
H      3.391789683612     1.175959615219     1.823397275773
C      4.787598335760     1.317348640374     0.143937884685
O      4.955059870810     1.787494361173    -1.013532029963
O      5.843387177400     0.712464228075     0.846705441287
C      7.113459374661     0.701151965620     0.179421664436
H      7.865190170871     0.199361446717     0.826166980122
H      7.051595386846     0.142376975051    -0.782252566105
H      7.464432384869     1.739288519258    -0.019702745714
Pd     2.193460060541    -0.537254466919     0.161874070459
C      1.035621643392    -3.057284596130     0.856621529213
O      0.873243239700    -4.283704569507     0.961726403692
O      1.899713866798    -2.508841938403    -0.034348521537
C      0.243647945859    -2.020538962392     1.693803150682
H      0.051233586172    -2.497117855425     2.663758320408
C     -1.084579044433    -1.709633913056     1.029948617524
H     -1.675891225487    -1.013850860544     1.655522765663
H     -0.911204511276    -1.233596612117     0.042810586768
H     -1.669363071204    -2.642457727363     0.885370284359
N      1.014893006055    -0.757286877555     1.797190143547
C      0.934360706135     0.130106837699     2.810312718328
O      1.482596236981     1.276198886453     2.805696974642
C      0.194347716349    -0.252298484301     4.040673549936
H      0.256648691236     0.584822470397     4.760171519685
H     -0.860991194454    -0.434105807685     3.787205283672
H      0.675320590104    -1.142782438919     4.481024941313
N      3.231604027690    -0.702994044218    -1.626704617976
C      4.361787552968    -1.475768032728    -1.672315865595
C      5.011052795174    -1.671903813146    -2.875888437511
C      4.517735869260    -1.110273683034    -4.035548086034
C      3.362087274830    -0.374655707472    -3.962802587794
C      2.738006688205    -0.206241057183    -2.712895158876
H      4.758222253633    -1.908212522856    -0.760754943662
H      5.906149378372    -2.270692072679    -2.904220254400
H      5.023356232370    -1.260713381646    -4.985582196274
H      2.911763351151     0.068656694097    -4.827632504236
O      1.583330616485     0.465349237592    -2.749689824853
H      1.117179360400     0.456136732346    -1.877523205617

