# STO-3G

title

0 1
C     -3.116886978961    -1.008884195907    -1.062111667858
C     -4.152896908380    -1.650786274365    -0.353287735455
C     -4.145931263403    -3.053765143243    -0.211853951930
C     -3.103503534983    -3.810773871097    -0.784004785620
C     -2.074990414741    -3.166779394189    -1.501363901504
C     -2.079044920691    -1.764786970473    -1.645166342487
H     -3.118957249905     0.071319651193    -1.166993499408
H     -4.961481697675    -1.064047874972     0.081048336969
H     -4.947914966286    -3.550363510546     0.330608214366
H     -3.097062194557    -4.893440722264    -0.678175531142
H     -1.273848332672    -3.752606310027    -1.945861952163
H     -1.294314002073    -1.258557224357    -2.202668452696
C     -1.326220316073     1.908639751437    -0.601069706210
H     -2.194421811972     2.040389898025     0.039386451526
H     -1.419929601830     1.350452609088    -1.526689504327
C     -0.146362943292     2.604350440429    -0.389206235595
H      0.640844567679     2.503879490637    -1.117393499674
C      0.064388084551     3.665239085041     0.609702603398
O     -0.923310618011     4.304264569596     1.069401532470
O      1.382006128249     4.094496504134     0.850196809526
C      1.529499254623     5.171643610262     1.785558978503
H      2.607784205043     5.415150341675     1.899597797683
H      1.004419771565     6.084715207567     1.423260423915
H      1.129400875325     4.884797417967     2.784342001447
Pd     0.080405378840     0.361135824236     0.388421456150
C      2.377984251201    -1.298027782337     0.763668519737
O      3.164492416979    -2.167156489599     1.178046048454
O      1.088321502718    -1.214369930704     1.169799458076
C      2.790081053632    -0.200886584378    -0.271841299106
H      3.538463809655    -0.654504071331    -0.934391632873
C      3.413378351419     1.000494768892     0.405662436071
H      3.703697134045     1.750263002727    -0.358745567088
H      2.680041080231     1.466333178129     1.096189710796
H      4.313966281762     0.693479089264     0.977521921691
N      1.572259217965     0.259201163905    -0.955496950249
C      1.299317581538     0.281393532330    -2.270392626206
O      0.154760160048     0.560813688573    -2.753341641754
C      2.399395309617    -0.005346229606    -3.221752553370
H      3.224449179685     0.699470623779    -3.024265123719
H      2.709209869998    -1.055072168062    -3.089912783585
H      2.023419347687     0.139419644476    -4.251588943012
N     -1.357317096183    -0.023682850951     1.853363343502
C     -1.748557419609    -1.335944871032     1.936476075714
C     -2.681243121656    -1.714068300545     2.884884023826
C     -3.205258541250    -0.788837645612     3.760100044728
C     -2.776364589167     0.512301020695     3.667420768688
C     -1.820202072308     0.840954006072     2.675293276392
H     -1.350024588806    -2.069478959769     1.245789238609
H     -2.991370325836    -2.745041000242     2.930576358051
H     -3.930380131740    -1.086360818697     4.512997131333
H     -3.123612663025     1.258094064423     4.351290844919
O     -1.341914658866     2.101355154342     2.622898671569
H     -1.903036813407     2.793319675515     3.020308570523

