# STO-3G

title

0 1
C      1.099163692272     1.072713581288    -1.957675347405
C      0.880931943436     2.228607225536    -2.734779234994
C      1.706947498683     2.492283975082    -3.845065028206
C      2.746684251652     1.601449645137    -4.176000368984
C      2.961948181515     0.447129864779    -3.396319334672
C      2.138867972588     0.178378227802    -2.285602530930
H      0.488718060810     0.863053330779    -1.079251638912
H      0.085879022936     2.925713960895    -2.477400043421
H      1.540225251633     3.384085212794    -4.445088553527
H      3.383860722805     1.804958580587    -5.033906728568
H      3.764871756210    -0.240812832620    -3.650590003098
H      2.303535274766    -0.708727391586    -1.679836304154
C     -0.562711411235     1.056659081243     2.729395553444
H      0.123530788157     0.290213660503     3.077482881776
H     -1.504097664963     1.149219669433     3.260370022207
C     -0.166170489517     1.999347580358     1.790996799445
H     -0.836562690051     2.802599830459     1.515289121648
C      1.219021738280     2.168562244235     1.314324076537
O      2.144247354381     1.462241954115     1.791984689024
O      1.483030669657     3.203228724674     0.401992069439
C      2.850499797137     3.337144522440    -0.013780531672
H      2.932111129116     4.161185473562    -0.754566062662
H      3.506792147250     3.576630970765     0.853178892295
H      3.212777484168     2.403087830849    -0.501522158943
Pd    -1.389302733996     0.153878907580     0.831432922867
C      0.201407969907    -1.975100891570    -0.188798404310
O      1.216343237177    -2.631045288600    -0.479982457363
O      0.203126663409    -1.034018668418     0.788302746192
C     -1.164902586711    -2.171296182094    -0.916723166430
H     -1.364907040058    -3.250118544120    -0.854870769571
C     -1.086755187395    -1.784313324239    -2.380016639008
H     -2.018800898134    -2.076672030059    -2.901747916457
H     -0.962636992632    -0.690186151790    -2.481365033057
H     -0.230185244588    -2.295304976536    -2.868904054403
N     -2.194806249549    -1.344337371285    -0.259978939023
C     -3.466671587905    -1.703883073145     0.034123851591
O     -4.215326359488    -1.077609585512     0.839200467876
C     -4.039952680891    -2.894575906651    -0.642577675969
H     -5.105204303715    -2.974783084078    -0.358279110587
H     -3.964318329947    -2.749509166007    -1.731274299226
H     -3.508888492796    -3.798642811583    -0.302607172360
N     -2.991904802906     1.487384066813     0.693430032768
C     -3.995932069593     1.541302115199     1.625967520156
C     -5.008099889291     2.473282147462     1.493425976392
C     -5.041213330887     3.321287759092     0.407471353188
C     -4.039487622461     3.223030329340    -0.523606980575
C     -3.025998566263     2.264415419865    -0.339383119687
H     -3.973395226570     0.884545276500     2.487962872973
H     -5.788298721112     2.514147988182     2.235548483146
H     -5.843156615440     4.045357138276     0.290413386530
H     -4.010142895892     3.842433011837    -1.397566695710
O     -2.107242167352     2.238690890901    -1.308323616986
H     -1.460392972216     1.501630639867    -1.189798704461

