# STO-3G

title

0 1
C     -1.931697509710     0.046909449131     0.996268558218
C     -1.893628907835     0.095667739786     2.405809822754
C     -1.949216370394    -1.094946226169     3.157295332088
C     -2.047868915814    -2.338717369763     2.498600297570
C     -2.097091472802    -2.387776158651     1.090326114204
C     -2.042633929410    -1.196240763119     0.338321535011
H     -1.905064393782     0.979974595122     0.441062328193
H     -1.829505778864     1.060508569289     2.904218489378
H     -1.929997937890    -1.053313727215     4.244164760698
H     -2.101843762062    -3.259431046806     3.076129966874
H     -2.185715635676    -3.345286955264     0.580717045923
H     -2.077957727852    -1.235191723055    -0.748152525590
C      2.111644831574     2.151618758228    -0.027551662288
H      3.051993528749     1.615887817049    -0.139079394690
H      1.917518607188     2.944686898257    -0.741021031465
C      1.320556456851     2.044579648354     1.121132224285
H      0.442706585908     2.670134879541     1.214418361386
C      1.733169273592     1.345644373271     2.350018515044
O      2.833954709671     0.732907828096     2.386028573856
O      0.876095830625     1.367584148708     3.463110999388
C      1.312068627508     0.622687572309     4.608516277849
H      0.555949328179     0.717630158546     5.417278447489
H      1.421529226081    -0.457127308744     4.360070531367
H      2.281439546351     1.015844218547     4.990813458276
Pd     0.479417974007     0.807422455197    -0.730821649465
C     -0.610201626990     0.792978313016    -3.448943669666
O     -1.059723816139     0.429818349151    -4.542952947538
O     -0.148291820957    -0.083325319426    -2.506598497781
C     -0.474674518983     2.282153609847    -3.030058178988
H     -1.303414610845     2.807181794481    -3.520641898734
C      0.825185245375     2.871477214390    -3.540331944680
H      0.912967899766     3.927940116042    -3.213513551643
H      1.685341857987     2.296637025906    -3.141166037994
H      0.850458425899     2.834320332433    -4.650181380428
N     -0.484431716901     2.392089405187    -1.559756409828
C     -1.200734259200     3.261693728696    -0.817695523675
O     -1.235251314751     3.253583987749     0.451579372217
C     -1.991141523748     4.309540594303    -1.509509741968
H     -2.441156891934     4.968561212096    -0.744046503959
H     -1.313293604140     4.899027636028    -2.148243667622
H     -2.798085912456     3.826959423665    -2.087151300105
N      1.370377511559    -1.013363729070    -0.189048752808
C      1.286182269237    -1.548043484849     1.070361877410
C      1.969685176314    -2.706484240333     1.381415122161
C      2.743405624450    -3.338766973843     0.434670722381
C      2.773342593941    -2.817658561225    -0.831253005148
C      2.030093093878    -1.654192870985    -1.117943040098
H      0.687714209460    -1.062711348922     1.827480352891
H      1.905965314055    -3.104189859913     2.380172627955
H      3.293287826513    -4.243764274488     0.678421445333
H      3.313601080474    -3.287465113684    -1.628370800170
O      2.028438827153    -1.298980233264    -2.388153489132
H      1.171937028866    -0.765690109558    -2.632640882259

