# STO-3G

title

0 1
C      1.164222393530     1.789428129593    -2.239424644309
C      0.628987185164     2.218059632572    -3.472641230685
C      0.928007507876     1.506112323386    -4.650798734111
C      1.762741320768     0.371762078504    -4.596263480081
C      2.299345512327    -0.052984170150    -3.364086787861
C      2.001584287031     0.656055503245    -2.184058008033
H      0.957608407491     2.356424067079    -1.333130899409
H     -0.012330771437     3.095143350051    -3.510460070705
H      0.516371636391     1.835150614562    -5.602122524486
H      1.993469868279    -0.176602391858    -5.506714485949
H      2.936389521900    -0.931803785670    -3.316330339969
H      2.412192166639     0.322464725135    -1.235331674575
C     -0.781631528730     1.737344776193     2.633856774112
H     -0.565556701987     0.931466894326     3.328578572384
H     -1.675029734008     2.321882071289     2.818339148263
C      0.153097486533     2.162013351338     1.702942980372
H     -0.040563883585     3.040387478964     1.097788994515
C      1.530952555329     1.640122759433     1.638355817089
O      2.318602784460     2.135348914646     0.791397494331
O      1.986004895175     0.741810565532     2.618424239624
C      3.236854588443     0.099775139879     2.336331532990
H      3.487527012756    -0.595750580334     3.165542061504
H      3.167066157575    -0.498586097490     1.398356400479
H      4.058370171576     0.846007344209     2.245798944405
Pd    -1.400662136561     0.606723460952     0.741899326239
C      0.131862830573    -1.636055415056    -0.105018688451
O      1.143175703469    -2.332428806999    -0.297498611663
O      0.072354386817    -0.719178025818     0.893243054842
C     -1.164302695046    -1.747608433985    -0.967038777111
H     -1.438272783063    -2.811728992151    -0.932593112557
C     -0.916515054342    -1.362902602719    -2.410394134068
H     -1.813464559814    -1.572982223052    -3.024226320650
H     -0.694984864069    -0.281643259690    -2.479994614893
H     -0.059978528173    -1.937490047873    -2.821765164226
N     -2.199003718547    -0.855079720527    -0.411769933957
C     -3.519567527462    -1.112974783909    -0.280359476815
O     -4.319040773376    -0.412613687489     0.407125387782
C     -4.086661812067    -2.287040550821    -0.991434849067
H     -5.181093524297    -2.290641780931    -0.835904089339
H     -3.873258362055    -2.184157576371    -2.066334796335
H     -3.660375830897    -3.210313867297    -0.566013392842
N     -2.867641886099     2.065310338278     0.443136607856
C     -3.973451625716     2.161672562145     1.249601573705
C     -4.887558278753     3.178157266107     1.045982732783
C     -4.722785190853     4.070131846724     0.008762119258
C     -3.625097967531     3.928652533211    -0.800173531016
C     -2.717434109536     2.883170006224    -0.546580854993
H     -4.102817645837     1.476119499201     2.079383433492
H     -5.747036160617     3.252045807131     1.691715394950
H     -5.446980088550     4.861389266179    -0.165991745652
H     -3.443368322984     4.577816526558    -1.633132294180
O     -1.699086484870     2.819866844639    -1.407227080163
H     -1.131499938939     2.020258376200    -1.278188892561

