# STO-3G

title

0 1
C      1.517926430679     0.593586372305    -2.329870560152
C      1.279615685145     1.583400303326    -3.306365095329
C      1.264460503418     1.232965744503    -4.670754293539
C      1.491098106364    -0.103498080573    -5.055857386201
C      1.735223412126    -1.089873570874    -4.078662327506
C      1.751563305190    -0.743288427862    -2.713668639663
H      1.546828591336     0.866957009601    -1.278549786753
H      1.111194830533     2.615303478029    -3.004657125689
H      1.079262455323     1.995058021508    -5.424090305070
H      1.478311226327    -0.374014424084    -6.109250915688
H      1.902621337803    -2.122850865744    -4.371449299831
H      1.925333966819    -1.508878912817    -1.963538585284
C      0.494005845703    -0.182705779877     2.336467454474
H     -0.055710178798     0.200627619647     3.191062848852
H      0.648210298023    -1.255551939031     2.283585968904
C      1.140530972317     0.649136041669     1.434390171053
H      1.775989214060     0.213546673246     0.677273703697
C      1.206985976115     2.115070696062     1.556718658997
O      1.737380298423     2.770773696237     0.622973871241
O      0.603547658634     2.754626509575     2.654182292481
C      0.606044897396     4.188583369902     2.622682829444
H      0.095180783078     4.577214473297     3.529658198901
H      1.647247025804     4.583336512148     2.611016938503
H      0.056618376355     4.565489773612     1.730247381894
Pd    -0.905292354448    -0.127851221649     0.538690704546
C     -0.548857236695    -2.506966755112    -0.993002797646
O      0.015110320666    -3.484180895368    -1.514240776487
O     -0.018861743046    -1.855044107144     0.074006766298
C     -1.907892786114    -1.936406707824    -1.509171477857
H     -2.573686336815    -2.806939030654    -1.587950164081
C     -1.771203450168    -1.315895569232    -2.883918158518
H     -2.762753700977    -0.989268425211    -3.254482766429
H     -1.106546251841    -0.432701700977    -2.840427522388
H     -1.344838672589    -2.052481741991    -3.597216300794
N     -2.396430141591    -0.909800728653    -0.570893161403
C     -3.653035189367    -0.767640937501    -0.088696732354
O     -3.948434489838    -0.087048259470     0.937072198953
C     -4.765686913969    -1.426771702593    -0.817245731133
H     -5.718091382443    -1.106480707038    -0.356682112681
H     -4.737773272199    -1.096760121465    -1.867735358556
H     -4.667483863097    -2.520211083042    -0.720031655929
N     -1.779437906538     1.732795927587     0.825260463111
C     -2.472115102514     2.014822298001     1.974086814199
C     -3.075696522365     3.249070519945     2.129088966811
C     -3.019799278596     4.185612276105     1.120392386086
C     -2.335563424344     3.867623718871    -0.024083730163
C     -1.729094102935     2.601139038386    -0.131915897908
H     -2.521335583844     1.281270619932     2.770302843053
H     -3.615426583793     3.461095273067     3.036695305681
H     -3.507093805533     5.150687831331     1.229134663856
H     -2.258767516627     4.544712019916    -0.850833386744
O     -1.104687902425     2.393168386364    -1.291580119554
H     -0.688562926152     1.500943801961    -1.364914555455

