# STO-3G

title

0 1
C      0.232456094240     0.411149827899     3.287126538833
C      0.106937430243    -0.299202115020     4.496771156695
C      0.978511458251    -0.023594754683     5.569352250243
C      1.970603268106     0.967443149601     5.429045799778
C      2.087388420799     1.684579544571     4.220588168473
C      1.218558995248     1.409173728569     3.146135074961
H     -0.435753619745     0.191148831588     2.456549393347
H     -0.675845871469    -1.049244211109     4.608001562402
H      0.879472487777    -0.568855690692     6.505474580404
H      2.641344755004     1.184521824778     6.257611884674
H      2.846478242973     2.456694545612     4.117818301681
H      1.309032053796     1.951256760882     2.208829189616
C     -1.046704482562    -2.711821812961     1.205304017645
H     -0.724258701382    -2.550136925275     2.229200470049
H     -0.507682293384    -3.462461168137     0.638566476653
C     -2.216384123824    -2.173930688735     0.692429393132
H     -2.534774614823    -2.463586256615    -0.296271109224
C     -3.170547662611    -1.353669647485     1.454639835914
O     -2.843036180692    -0.914091682600     2.589757361056
O     -4.432364582781    -1.077896367353     0.899463730103
C     -5.350328385218    -0.375140554547     1.749596851971
H     -6.304507756035    -0.209537500076     1.204535396236
H     -5.572458768730    -0.968166738464     2.665696916123
H     -4.941943969308     0.617389908650     2.045703778875
Pd    -0.340346837124    -0.752082076596     0.197581051802
C     -0.211991854917     2.033400231133    -0.452454725097
O      0.184455903829     3.210483592337    -0.466887879740
O      0.611897489562     0.985945137189    -0.191901994355
C     -1.710462245864     1.644386358591    -0.729668539869
H     -2.026237249166     2.210711335077    -1.616370542050
C     -2.612251163846     2.022092084301     0.421144392884
H     -3.655265256477     1.732018432319     0.180900339900
H     -2.292649780974     1.497618939235     1.343987394564
H     -2.570016970810     3.117939598617     0.594335310285
N     -1.769195617969     0.188086188257    -0.896101350390
C     -1.939936533219    -0.494712021196    -2.029702233279
O     -1.500083793021    -1.696599329541    -2.200417663365
C     -2.742068816890     0.100645515581    -3.117155363890
H     -2.915046624819    -0.670148861975    -3.890384727392
H     -3.706479450235     0.426595193167    -2.690759395967
H     -2.183418521951     0.943396726322    -3.558215390004
N      1.473836085318    -1.767801191240     0.299359317889
C      2.519248635648    -1.515038280647     1.145158328152
C      3.710286769639    -2.192787084810     0.981804840427
C      3.861652836634    -3.108875210660    -0.036264913492
C      2.803907258289    -3.326050366666    -0.881092680856
C      1.604324647475    -2.607798923992    -0.692729582123
H      2.407185166841    -0.804561924878     1.952512395861
H      4.526810724978    -1.994532377959     1.656645703001
H      4.799139411957    -3.642121739723    -0.169521108540
H      2.863025678929    -4.014221945489    -1.700503836014
O      0.667843745893    -2.887678313854    -1.577513754640
H     -0.214500348397    -2.330585286379    -1.719935706477

