# STO-3G

title

0 1
C      1.287991621993    -3.616795382413     1.239724595642
C      0.580097947034    -4.632528864419     0.565173439771
C      0.589808464583    -5.948265030856     1.070908926778
C      1.307468103064    -6.248761316056     2.246008290685
C      2.017201942758    -5.232253613877     2.917469230665
C      2.007684061623    -3.916375447116     2.414158871984
H      1.277364642147    -2.604751233425     0.845960451649
H      0.028131156955    -4.397149721242    -0.340328215320
H      0.042150327331    -6.730910939153     0.550801969082
H      1.315875366821    -7.265257260542     2.634078177945
H      2.573483403943    -5.462765743305     3.823539355268
H      2.544042716896    -3.125259850765     2.931947995636
C      0.656668503527     1.865956161128     1.759336507987
H      1.523317791055     2.265614522759     1.242623987914
H      0.827499331943     1.419453002150     2.731659035209
C     -0.643391246799     2.083038637967     1.306909808502
H     -1.467410755095     1.785369033202     1.937345706434
C     -1.007325277410     2.862860625626     0.112272247248
O     -0.120159002031     3.158087545161    -0.730993030708
O     -2.371374346273     3.038279084190    -0.174446575284
C     -2.672703894412     3.707339538324    -1.407554632098
H     -3.775034653347     3.796965956251    -1.519163997417
H     -2.238094608650     4.732834359034    -1.419115673754
H     -2.282759200096     3.130903254779    -2.277428767148
Pd     0.017321450177     0.064447924107     0.471125088006
C     -1.700410968932    -2.106958111712    -0.279431320053
O     -2.250072095328    -3.016440159721    -0.922111509852
O     -0.541954099045    -1.517938850997    -0.673597406161
C     -2.302219667213    -1.548288366112     1.064868447997
H     -2.710482269616    -2.403510498566     1.618753507754
C     -3.415790003308    -0.558649205906     0.812732167122
H     -3.801394370413    -0.178392834275     1.781022061011
H     -3.035840870586     0.296356904258     0.217404785690
H     -4.242943942353    -1.050030302865     0.258749976520
N     -1.227470851365    -0.837822318072     1.764537234827
C     -0.504379199547    -1.251544502725     2.809898496590
O      0.691409030542    -0.831331878746     3.050581071378
C     -1.095420953578    -2.215169107841     3.758115963685
H     -2.073703645625    -1.827016403217     4.088384525773
H     -1.188627025014    -3.189663179267     3.247744831309
H     -0.417430876357    -2.326419342339     4.624468239640
N      1.846822926880     0.309102634048    -0.479575206748
C      2.055015299655     0.631151692300    -1.791651654871
C      3.335245520777     0.606190687354    -2.307062470538
C      4.403936598986     0.253934065424    -1.511028299501
C      4.163827843318    -0.070455091031    -0.200402499298
C      2.842225508529    -0.041999868861     0.291612401254
H      1.217022085934     0.914005004355    -2.418302331172
H      3.493754811174     0.863585712314    -3.341164432627
H      5.412885199709     0.230554998427    -1.913962734844
H      4.950207765535    -0.364170940181     0.465540928364
O      2.735707826049    -0.394015722371     1.558541669392
H      1.829943815790    -0.524798324327     2.072633222575

