# STO-3G

title

0 1
C      2.256364506003     2.993739693095    -2.144574849984
C      1.366040100230     3.650477260604    -3.017947575325
C      1.644790862546     3.707980198074    -4.398009378037
C      2.818037411614     3.115327820118    -4.905495378915
C      3.715293969859     2.469549384693    -4.031408327556
C      3.433925331232     2.409015256105    -2.652009940257
H      2.044922717287     2.939914433048    -1.081280635118
H      0.465915309529     4.125444532944    -2.632161103752
H      0.957550736562     4.215908214136    -5.070455353766
H      3.035322261497     3.163075473002    -5.969924099791
H      4.625054034369     2.017178187782    -4.419203671490
H      4.124902299800     1.904977820713    -1.978521520919
C     -0.294498276018     2.394365194547     0.249059864450
H     -1.162132121916     2.785001933927     0.771129743135
H     -0.115621237702     2.772765051224    -0.750378779079
C      0.678342125402     1.664888741514     0.927365499442
H      1.600039355835     1.402097418043     0.428877546502
C      0.685754968492     1.439031899602     2.384803379841
O     -0.278552973749     1.844574606484     3.090231605698
O      1.844918189887     0.905305422969     2.971525523216
C      1.753274805279     0.601300032440     4.369623931944
H      2.718071589348     0.172236589318     4.715653080752
H      1.546668694490     1.520293010983     4.963549075868
H      0.953454206628    -0.151454949728     4.555017088699
Pd    -0.828579090921     0.325478874760    -0.391062888788
C     -3.442327668411    -0.636028795368    -1.038485642492
O     -4.427022511005    -1.021426908152    -1.688124861624
O     -2.165915182071    -0.726166670836    -1.500868321634
C     -3.582208463379     0.013319311265     0.394841517675
H     -4.311056681079    -0.587311439614     0.955069558889
C     -4.085249973075     1.435533969362     0.320345694248
H     -4.137779464284     1.863342681559     1.343103306193
H     -3.393231853957     2.048291887516    -0.290144655886
H     -5.096202217700     1.457889505841    -0.138021233767
N     -2.243782754531     0.040379585371     0.989053602357
C     -1.742640082423    -0.780679673573     1.917725161053
O     -0.495918457313    -1.106651774298     1.967149913565
C     -2.630907558508    -1.289861144686     2.980938487006
H     -2.013721158173    -1.810139273946     3.735455972249
H     -3.133976583256    -0.422431631800     3.442382326629
H     -3.353720053647    -1.997446577630     2.541902055592
N      0.797393133109    -0.190541316084    -1.573024649942
C      0.957542739690     0.055289605058    -2.909140050819
C      1.993022264765    -0.543698692913    -3.596936546470
C      2.873632326704    -1.380678947158    -2.947959007532
C      2.680280847248    -1.621955383596    -1.612356393300
C      1.590088211088    -1.021473379410    -0.948548935032
H      0.283420539527     0.733558789692    -3.419125689128
H      2.121624279207    -0.329789772215    -4.644963365860
H      3.697199759802    -1.844264541522    -3.484082055800
H      3.314525666884    -2.282262470869    -1.055509639984
O      1.475853289217    -1.369814495385     0.318599352580
H      0.634028560273    -1.190415451711     0.908568431553

