# STO-3G

title

0 1
C     -1.526056556031    -2.074275413427    -0.094156576530
C     -1.348498798892    -3.364970805096    -0.640753980531
C     -1.170784533422    -4.476893429879     0.204275850026
C     -1.167409316660    -4.303311211937     1.605465437082
C     -1.344463073912    -3.018632479586     2.155324836383
C     -1.528977051155    -1.904306367556     1.308840640723
H     -1.696527395992    -1.235061779280    -0.764477101011
H     -1.362665004789    -3.495704346754    -1.721128516479
H     -1.049485215097    -5.470422107243    -0.222164840151
H     -1.041100253439    -5.163117539257     2.260351960341
H     -1.348453360823    -2.882021658286     3.234626884776
H     -1.678006981645    -0.918301106335     1.741139705672
C      1.721222187584     0.656193622548    -1.761856715896
H      2.745656005754     0.774269870063    -1.417764996972
H      1.200398012070     1.568125296399    -2.031580289897
C      1.183069739384    -0.594851754952    -2.115501728377
H      0.205327803844    -0.619524399073    -2.574207929650
C      1.963491164798    -1.843307588069    -2.172895641317
O      3.207426213219    -1.820881242303    -1.972345161343
O      1.296322259490    -3.042812847995    -2.474851739452
C      2.103790058790    -4.228047200358    -2.466941587631
H      1.469260173124    -5.106837101848    -2.711015335551
H      2.912811830004    -4.159938156232    -3.229412460635
H      2.555987253537    -4.391786996613    -1.462430174186
Pd     0.520461843154     0.036977989902    -0.007390685357
C      0.331071445482     2.132813546348     1.260058784316
O      1.464194549711     2.727295634824     1.118966369802
O      0.174501425168     1.011792262247     1.944486802672
C     -0.890340077573     2.541481404072     0.380965956954
H     -0.673371671557     3.497446102453    -0.111003236328
C     -2.162735774205     2.631806854361     1.200561832413
H     -2.976671393429     3.097433229962     0.615516572105
H     -2.473773133200     1.614484634419     1.519533587802
H     -1.989815773623     3.255228465140     2.102603645579
N     -0.960372369548     1.382678538364    -0.554032933024
C     -1.616817896354     1.289523031833    -1.725900618015
O     -1.553521704699     0.274160819703    -2.486424049297
C     -2.472682591647     2.416297022000    -2.168005475152
H     -2.820667902024     2.202373458481    -3.195475829236
H     -3.348006636181     2.468769812343    -1.504801088743
H     -1.884663219263     3.348587720937    -2.169177996374
N      2.098655880937    -0.958994126814     0.841099031139
C      2.043548132430    -2.317019154897     1.007676481643
C      3.089004530683    -2.985587625961     1.607478062762
C      4.198505234245    -2.297463119590     2.041810781741
C      4.223349765505    -0.937227763135     1.887856234604
C      3.127677010505    -0.276277002750     1.287473405730
H      1.194177123726    -2.871713780614     0.637118675344
H      3.038404072152    -4.055181178495     1.719955989563
H      5.031342275942    -2.819999871484     2.504216182014
H      5.052494146660    -0.345222119381     2.218514941369
O      3.266211989062     1.022673555955     1.237573663721
H      2.482496305046     1.763136435606     1.197831543728

