# STO-3G

title

0 1
C     -1.490518894449    -1.675456016358     0.470508304379
C     -1.489085535929    -2.720076865773    -0.480626972730
C     -1.266701843875    -4.046972131053    -0.065544734039
C     -1.042303892977    -4.332358419311     1.298681956830
C     -1.041277834374    -3.289909103311     2.248140713709
C     -1.269704633635    -1.960914123414     1.835782730553
H     -1.723266334568    -0.667477188061     0.140082922253
H     -1.671192059549    -2.481846937706    -1.525297961568
H     -1.276348575582    -4.851788645651    -0.797239717343
H     -0.882498924489    -5.359287932421     1.620827087506
H     -0.877913673679    -3.511229827608     3.300842303335
H     -1.284298530479    -1.159360888138     2.571252211209
C      1.849801699121     0.541691199396    -1.879146718342
H      2.888481071496     0.617208901478    -1.563339849807
H      1.369565918974     1.471557604749    -2.166800481383
C      1.241062215399    -0.688422880436    -2.169902132420
H      0.242990445249    -0.685617157008    -2.581874273937
C      1.956127865127    -1.974755177352    -2.223268802709
O      3.198191711145    -2.015979481545    -2.014562133167
O      1.221626985948    -3.145726842508    -2.478452560088
C      1.971515339118    -4.368342691487    -2.483950039655
H      1.287335161413    -5.218223132659    -2.694246871485
H      2.754456217397    -4.347856578975    -3.275858485636
H      2.451679307908    -4.543127294151    -1.494571874588
Pd     0.642688823670     0.180066006002    -0.037230299122
C      0.283796461761     2.865857919356     0.996726491806
O      0.765888750630     3.992794300635     1.178691894681
O      0.845859555609     1.715194198665     1.459163229839
C     -1.027910621528     2.597464555495     0.219895322223
H     -1.274829573256     3.528386088134    -0.305586803340
C     -2.152429769193     2.251371533350     1.180593439854
H     -3.092803669632     2.053999231339     0.630438610924
H     -1.885713753574     1.340563415061     1.755328456906
H     -2.320892607605     3.090250068396     1.888328531983
N     -0.823952012739     1.446879605674    -0.695897049437
C     -1.543969638585     1.196589798224    -1.812054577546
O     -1.503571761756     0.101588981908    -2.452080098321
C     -2.404781406653     2.271911564773    -2.367441783705
H     -2.871914402065     1.898140737563    -3.297441237978
H     -3.194636573210     2.519215422757    -1.642897125487
H     -1.772858303073     3.145061927630    -2.604751675348
N      2.108124420765    -0.942993193079     0.902635078888
C      2.064406384003    -2.312126579284     0.891518442769
C      3.064351816856    -3.045078810943     1.496050664667
C      4.123067801295    -2.412652641505     2.107575026233
C      4.133897796521    -1.043916934898     2.136933819521
C      3.079654628896    -0.324631534215     1.534605619077
H      1.258050374600    -2.822571616212     0.385877167422
H      3.023435303391    -4.120647509629     1.465637563065
H      4.921865799969    -2.985633167193     2.570547021148
H      4.913075294927    -0.490821555391     2.621751840498
O      3.143622210456     0.973038835786     1.689096084495
H      2.195746211700     1.480828993701     1.598178896341

