# STO-3G

title

0 1
C     -0.700515971078     2.425027167096    -2.068006900149
C      0.091918983200     3.513259536643    -2.493396226809
C      0.978480774980     3.363669080288    -3.577886825514
C      1.075732745247     2.122234825162    -4.241927856328
C      0.281599490884     1.036070975533    -3.823089206662
C     -0.609187976463     1.185911153363    -2.739563970856
H     -1.391973078303     2.561956234060    -1.240391901127
H      0.001572648303     4.472929356671    -1.988713642151
H      1.578383105169     4.207737720609    -3.912226364611
H      1.753091878078     2.007867394520    -5.085938810097
H      0.348181243957     0.080313520530    -4.338852783291
H     -1.220614768289     0.346063022972    -2.419513571535
C      0.646759051006     2.713793177554     1.190558669685
H      1.663882905926     2.789815593414     0.821070423730
H     -0.109903916089     3.401827678973     0.828477110781
C      0.341432623132     1.941255520554     2.319600296287
H     -0.639168589799     2.035141900399     2.760753392862
C      1.324732174177     1.214010809725     3.140355202894
O      0.930501982138     0.654065558035     4.196476782816
O      2.681741382874     1.212901220171     2.771500960952
C      3.545013190909     0.393454391978     3.571708374533
H      4.579925196641     0.450459736326     3.171918424799
H      3.556554222325     0.743862244442     4.628477401493
H      3.220144232029    -0.672119208826     3.538662478560
Pd    -0.222172157860     0.787805862979     0.435855487033
C     -1.548720650003    -1.214656872943     0.950283900122
O     -0.987376418176    -1.831744673065     1.920825257933
O     -0.990229418144    -1.102787186210    -0.253626294571
C     -2.799637873650    -0.310347190257     1.164351936512
H     -3.170610010724    -0.448435793143     2.187349089406
C     -3.883532242945    -0.619066720597     0.149114357814
H     -4.836038924787    -0.133090595340     0.428422185140
H     -3.565480936392    -0.264867754213    -0.854561710897
H     -4.061775379411    -1.713910387359     0.104969646208
N     -2.219117906911     1.038180269574     0.910698914178
C     -2.750637976983     2.251199098285     1.150895424780
O     -2.141541259538     3.340890160818     0.917514227318
C     -4.110598816922     2.342474591699     1.733090778144
H     -4.840133936540     2.035281526367     0.970027314716
H     -4.156563600198     1.719101784639     2.640206851761
H     -4.305285596515     3.396925823436     2.004504818580
N      1.666839860003     0.083355977973     0.031933585917
C      2.411849974560     0.710394209044    -0.931173059227
C      3.659198396558     0.228839402023    -1.266475666177
C      4.167467726621    -0.886228645543    -0.641660984579
C      3.399684332702    -1.507421097528     0.306210382857
C      2.115841582996    -1.001747492062     0.614553127460
H      2.033001161564     1.601530407237    -1.412504227754
H      4.236783309160     0.736647335445    -2.020723214753
H      5.151415978893    -1.268556770136    -0.899188948635
H      3.732606682516    -2.388797270583     0.816012324363
O      1.489758720433    -1.707978267234     1.519611330785
H      0.442155275860    -1.762562478101     1.687527469234

