# STO-3G

title

0 1
C      1.929287191290    -0.819721465791    -0.466419556522
C      3.255556689877    -0.739673298294     0.004444022524
C      4.329447639883    -0.666517533800    -0.905021780880
C      4.078635376681    -0.676171685383    -2.291936529256
C      2.753692749629    -0.760266231573    -2.765714262502
C      1.681494328759    -0.832004661462    -1.853991980506
H      1.112929270176    -0.881206117387     0.246764700360
H      3.447739026097    -0.733069004584     1.076472832457
H      5.351023962831    -0.607082317665    -0.535459305821
H      4.906550472657    -0.622489412709    -2.995820634259
H      2.559392766192    -0.769785180181    -3.836250112723
H      0.659988341106    -0.885580745344    -2.224771333228
C     -2.074668554527    -0.230877005843     1.461437325095
H     -3.025939400131     0.195365399019     1.782818472883
H     -1.879483482576    -1.235168986741     1.830928142711
C     -1.786931603258    -0.165146052834    -0.058729182622
H     -1.002900139982    -0.881499312057    -0.281398487051
C     -2.917790290727    -0.336263862568    -1.016296294230
O     -4.102740849169    -0.132448799497    -0.628557063042
O     -2.663191657377    -0.961933411993    -2.253655446027
C     -3.800282846518    -1.142634986023    -3.108469632257
H     -3.476112285282    -1.627689122630    -4.053702084349
H     -4.559374886527    -1.796658347667    -2.622706817978
H     -4.263329239836    -0.161594957651    -3.359628094767
Pd    -0.640936836642     0.982076112859     2.269092915686
C     -0.911725893525     2.144953577543     0.418092838311
O     -1.033376639316     1.135131082936    -0.494984422553
O     -1.866938249328     2.495167386054     1.221636548935
C      0.441834767403     2.964824555362     0.465482210600
H      0.179703123503     4.002705710102     0.705882794065
C      1.233333609054     2.900621364618    -0.824179776859
H      2.071046048765     3.623778312606    -0.800350879058
H      1.618003640649     1.873425572531    -0.978916224621
H      0.575117900877     3.160857658924    -1.678968161563
N      1.110628065567     2.303865831529     1.585558177093
C      2.303441418738     2.123570587617     2.021954903212
O      2.572364745596     1.255792623214     3.004733149140
C      3.471115673713     2.840122078674     1.488830625527
H      4.340916485647     2.651625385274     2.143679399307
H      3.681334888608     2.446384842281     0.480659456951
H      3.241163153409     3.919363908854     1.466521711417
N      0.210398551351    -2.284291023690     1.928465650763
C      0.478760397016    -3.609033239513     1.712314341804
C      1.339092855576    -4.287737804084     2.555764304039
C      1.934490712484    -3.639585109771     3.616743965181
C      1.651839195406    -2.312056568901     3.809401509606
C      0.761500885837    -1.665223229859     2.918234559224
H      0.015801714935    -4.121810174032     0.877330585034
H      1.544427971184    -5.329759851875     2.374789568293
H      2.612314838076    -4.167627482135     4.282026760873
H      2.080203565732    -1.750123701010     4.613956810792
O      0.582893916686    -0.366562773987     3.180644947284
H      1.801219291238     0.596320653090     3.200304888665

