# STO-3G

title

0 1
C      0.872166353595     2.591454691547    -0.150587112278
C      2.227375869834     2.887599997130    -0.380108076941
C      2.577408242363     4.119004602120    -0.976986342868
C      1.580244143449     5.042150265196    -1.342701586618
C      0.224752170962     4.731283518746    -1.115720296046
C     -0.136837345093     3.504916912715    -0.521440745717
H     -0.471205684856    -0.733812315380     2.607038056534
H      3.014442903230     2.185015880700    -0.114646059653
H      3.626769044760     4.347238658427    -1.152514384129
H      1.855846045826     5.989297201009    -1.800293614911
H     -0.552578724184     5.438334793739    -1.397943423145
H     -1.183679179073     3.263348158071    -0.350383104798
C      1.462931477419     0.991084701157     2.347485375715
H      2.348550338134     1.575534399900     2.122438530770
H      1.629026140709    -0.035923761350     2.663429428985
C      0.234280030463     1.627522950337     2.668203056563
H     -0.548446749577     1.065325298989     3.158561522645
C      0.077349800146     3.086135262301     2.815257186530
O     -1.046117964488     3.548732939228     3.143206297821
O      1.193215741197     3.923745272222     2.641518694224
C      0.926899623338     5.332398099225     2.658571037507
H      1.875207423395     5.886925263904     2.493119815905
H      0.220313280844     5.608665317845     1.843275273400
H      0.503964568755     5.644768633473     3.640177278656
Pd     0.144712836925     0.872061613244     0.578421046783
C     -0.532476388744    -2.631821706511     2.564782674983
O     -0.140285792356    -1.471999230681     3.196451037639
O     -0.313817735886    -3.757199192584     3.020224024577
C     -1.292257275192    -2.331412668532     1.237529626992
H     -2.292167606117    -2.774075821212     1.378618538772
C     -0.637331824479    -3.019053393728     0.058725498345
H     -1.145831916938    -2.728751228101    -0.883401411522
H      0.427129374036    -2.721601343407     0.000399743568
H     -0.693629705494    -4.121285661433     0.179859997409
N     -1.311258260895    -0.880966178846     0.988396899487
C     -2.321947700615    -0.210315960096     0.429942483829
O     -2.145815930329     1.001532250508     0.020241773234
C     -3.658490652817    -0.819976493445     0.250752572500
H     -3.562627296304    -1.693863964037    -0.414238369128
H     -4.043330270849    -1.098572724042     1.246326929455
H     -4.329773041964    -0.071618630891    -0.209710254595
N      0.596649880309     0.050579749195    -1.362144721778
C     -0.177617432438     0.293056459418    -2.464717399374
C      0.171117992152    -0.269737050843    -3.678654754652
C      1.297604098920    -1.060844082185    -3.787179100266
C      2.056527524317    -1.271849032267    -2.663023562597
C      1.657672779051    -0.675010653153    -1.453649108940
H     -1.058605170999     0.918822693932    -2.384908201553
H     -0.439977684078    -0.077666962098    -4.545367042276
H      1.578155741214    -1.502105148729    -4.739956725437
H      2.945785461126    -1.869978083126    -2.674978456256
O      2.449239028761    -0.924079847437    -0.403519096696
H      2.100733947359    -0.443568937849     0.397475321556

