# STO-3G

title

0 1
C      1.221457122218     2.560183503084    -1.166025283329
C      2.569432202092     2.981552168842    -1.088455707610
C      3.110112082099     3.857951938068    -2.054915300376
C      2.308474677532     4.328879136332    -3.111070424455
C      0.964262271484     3.914069831064    -3.196732909584
C      0.426806714743     3.034244878417    -2.235633853599
H      3.485857089627     0.449015345204     1.282655144215
H      3.215919412617     2.635986963713    -0.281885745859
H      4.149949504773     4.171464921622    -1.978731946792
H      2.721411254065     5.006860097820    -3.854686602981
H      0.334100045041     4.270220096187    -4.009953264543
H     -0.610169860924     2.714325196789    -2.326813106072
C      0.865968093375     2.603473543366     1.914031884774
H      0.773646294794     2.014967322127     2.820954085848
H      1.861097099504     2.952759987579     1.658715196645
C     -0.248896242497     3.156299512478     1.283912374999
H     -0.107585831622     3.873098564897     0.490418856090
C     -1.629191498865     3.077225545383     1.794607846338
O     -2.526990849491     3.722426798487     1.192667664507
O     -1.880904801632     2.456732974730     3.034056733547
C     -3.248299283206     2.472126347455     3.468205475933
H     -3.332586492845     1.951863592712     4.445807320158
H     -3.609918516494     3.517457125287     3.599073392469
H     -3.900602237920     1.946606928726     2.733118565508
Pd     0.480741486789     1.246240027933     0.180578019596
C      2.126759625824    -0.413124132021     2.415488197773
O      2.667702594041    -0.084810706259     1.173858185151
O      2.705115678879    -0.125688189425     3.471101692717
C      0.770767929002    -1.127062277760     2.298058543390
H      0.496454668876    -1.379348266241     3.333469095628
C      0.884298564214    -2.409932428803     1.494675182782
H     -0.085916201541    -2.945136870480     1.486002793988
H      1.157373678752    -2.165260812511     0.446515675611
H      1.660165520631    -3.072839585855     1.931028672198
N     -0.194482576922    -0.252856919055     1.613176014296
C     -1.501743218520    -0.299902545663     1.784918304693
O     -2.323865905764     0.299530430443     0.973831664990
C     -2.105697488310    -0.977550147867     2.953871102495
H     -1.857688183367    -2.050197558762     2.917292821197
H     -1.713499636781    -0.493237480339     3.864481811083
H     -3.203350770751    -0.851087774931     2.913075282474
N      0.373811019335    -0.090769334676    -1.406433700394
C      1.521576305233    -0.509564645873    -2.020992157066
C      1.447515243195    -1.269841593818    -3.169970721522
C      0.225289628075    -1.602473400653    -3.711215112574
C     -0.909494866235    -1.170005683664    -3.076314521172
C     -0.801223860668    -0.399792869294    -1.896398105406
H      2.486067924966    -0.244781177506    -1.603466226909
H      2.356583249349    -1.592523236528    -3.649580052911
H      0.162558086978    -2.193183788790    -4.621087068724
H     -1.889609417675    -1.390082740444    -3.448527069122
O     -1.939794421855    -0.031839916008    -1.379114623716
H     -2.059063540787     0.246781509025    -0.286741065974

