# STO-3G

title

0 1
C      0.796613860785     2.683417976512    -1.261271748854
C      2.081741225688     3.237403999216    -1.441648052805
C      2.319567393472     4.143743108152    -2.498452502148
C      1.279933950483     4.504620709409    -3.374987934074
C     -0.002367252438     3.949122253255    -3.197900089303
C     -0.243801204402     3.039176306561    -2.148380172673
H     -0.124780445945    -2.459581766961     0.650476802917
H      2.910174186587     2.971912498190    -0.788066379740
H      3.315221644581     4.561516697180    -2.632419711030
H      1.465346060093     5.202600410415    -4.187759657820
H     -0.811494244827     4.212136408668    -3.876120350353
H     -1.237321657501     2.604234072946    -2.044102805521
C      1.127508611786     2.699678065823     1.710500822347
H      1.457090046479     2.046928746354     2.513885778923
H      1.902944607708     3.197040841369     1.143332761295
C     -0.210108906575     3.085997341577     1.588507132595
H     -0.486050289073     3.840263072428     0.864873638725
C     -1.239653404219     2.771671711551     2.594437634872
O     -2.428257018969     3.114480572806     2.359279293405
O     -0.862336409097     2.240342909541     3.841086395713
C     -1.934025683673     1.932714416590     4.742730686438
H     -1.513734869188     1.521743718144     5.685791439511
H     -2.518308296291     2.847371176466     4.992682088426
H     -2.610600247325     1.165609132659     4.303589104581
Pd     0.269360759008     1.356437300093     0.168261854496
C      1.502320208121    -1.617310622244     1.419816688658
O      0.895334353358    -2.548496448056     0.638698051921
O      2.721421363552    -1.379763778149     1.342306417876
C      0.578788420896    -0.812808739939     2.394196340082
H      1.249652205669    -0.098622891957     2.879734504027
C     -0.033710164009    -1.677384613121     3.482754062906
H     -0.638842216969    -1.044602311036     4.164425019245
H     -0.685945882661    -2.454504882762     3.033268040749
H      0.767156990074    -2.176282018643     4.066728152830
N     -0.496201018925    -0.018470139335     1.751984655281
C     -1.491007087431    -0.575719816675     1.076769441722
O     -1.558736734821    -1.796873337112     0.610478601890
C     -2.633326097563     0.311149843366     0.786882809790
H     -3.060078901990     0.638532892635     1.750069869465
H     -2.293106976660     1.174888479741     0.196529174216
H     -3.403407044843    -0.249996559234     0.224854208772
N      0.813135031103    -0.151305313868    -1.304314224367
C      2.158515517111    -0.092552438955    -1.570631290491
C      2.655046610948    -0.574196918110    -2.763802715530
C      1.814281986736    -1.158941041727    -3.682089869507
C      0.486404982076    -1.264866848866    -3.367290173405
C      0.025070149461    -0.778634379884    -2.124618979135
H      2.828512352501     0.374823239012    -0.859084475456
H      3.710688736835    -0.504394314614    -2.966097214332
H      2.198459953024    -1.549634909965    -4.620402697447
H     -0.211658619951    -1.757087491285    -4.013755774618
O     -1.260737089353    -1.037414726446    -1.901541364828
H     -1.496792543027    -1.324123150296    -0.957110420818

