# STO-3G

title

0 1
C      1.059113569127     2.703268541576    -1.139314933393
C      2.402722611903     2.630930406490    -1.571763059081
C      2.929493434241     3.599038374488    -2.451806642353
C      2.116012657261     4.648173728320    -2.923110183011
C      0.773193953626     4.722624244148    -2.507782858142
C      0.248227274251     3.758703888386    -1.619864211736
H      2.788498383154    -1.912935786859     1.754578531923
H      3.043106683747     1.814094171142    -1.240082523133
H      3.967548530136     3.527320146708    -2.771426325871
H      2.522248095764     5.392766157851    -3.603826215523
H      0.135004940152     5.527550718229    -2.867946421852
H     -0.795654297843     3.840081146130    -1.316400209121
C      1.265327320565     2.335060523805     1.775815170812
H      1.487990035849     1.613293575955     2.552678885133
H      2.125568756235     2.724862058452     1.242898264092
C      0.007905432879     2.918762019671     1.611139334798
H     -0.087501511639     3.732580645421     0.910392423745
C     -1.148321615129     2.760566527010     2.509887511104
O     -2.245862691281     3.263042984038     2.152826181856
O     -0.954805233324     2.283053874799     3.818143757069
C     -2.084613958265     2.384040636777     4.697375750646
H     -1.820657192464     1.954153133734     5.687873079822
H     -2.373739840495     3.449008055151     4.847027299265
H     -2.956907529367     1.820721042389     4.295188091271
Pd     0.263817220455     1.262280076430     0.067206356541
C      1.078175604198    -1.611841133194     2.722735109079
O      2.017104282326    -1.309788582828     1.685526755064
O      1.361966008059    -2.465874748582     3.561167895186
C     -0.076251881411    -0.605682491933     2.675371457067
H      0.364931734475     0.306979698799     3.086083873511
C     -1.214344820050    -1.009867843154     3.600177090235
H     -2.074963089264    -0.326426561385     3.460585115724
H     -1.542013134285    -2.048082927564     3.382917458997
H     -0.880106551241    -0.962043599183     4.657570771166
N     -0.609738038634    -0.286768228662     1.328629014504
C     -1.101130476697    -1.386435602229     0.687807453948
O     -0.882539376502    -2.592338815929     1.015637368810
C     -2.068359264330    -1.128575332590    -0.396056089993
H     -3.024284043610    -1.588746631518    -0.094098493441
H     -2.198202127426    -0.043158715033    -0.532013457586
H     -1.695171123151    -1.615061971527    -1.313599533571
N      0.344376898308     0.123811058107    -1.714327521745
C     -0.368526815624     0.540431104964    -2.809637117988
C     -0.208536582559    -0.094202414835    -4.023266605462
C      0.678136809148    -1.139860031476    -4.152431869605
C      1.382661031556    -1.530584869716    -3.045593208946
C      1.180582135203    -0.864271232809    -1.819597462606
H     -1.070678651415     1.360522681690    -2.718121249827
H     -0.775165700245     0.239229246692    -4.877341173669
H      0.815014595300    -1.641786656268    -5.106703246919
H      2.086874493812    -2.339113157563    -3.074672411130
O      1.926328597686    -1.329780412370    -0.837815283962
H      1.731051169940    -1.080308580679     0.123465284071

