# STO-3G

title

0 1
C      1.218558539107     2.615227950244    -1.145598762205
C      2.581468597432     2.501382062404    -1.506702234921
C      3.171129871551     3.412214408087    -2.407746596758
C      2.402638923451     4.448064462779    -2.973926534916
C      1.041888845879     4.564136305147    -2.633132787015
C      0.454478291834     3.656192347926    -1.725786134177
H      3.076409066646    -0.092170223869     2.050868082554
H      3.191876316899     1.695017110472    -1.099976773626
H      4.222637358268     3.307462108709    -2.669601723679
H      2.856519326133     5.149342740362    -3.670435537107
H      0.437467314580     5.358075329775    -3.068277072841
H     -0.603289314987     3.768365590117    -1.488049400640
C      1.146181984221     2.565787135517     1.816790898960
H      1.346361378808     1.950110725393     2.685115625140
H      2.008692058838     2.978990693365     1.305998374597
C     -0.135287826206     3.020930976845     1.536724838332
H     -0.277765807625     3.761624427788     0.766466923088
C     -1.310304551506     2.773770695757     2.388174746847
O     -2.435203859039     3.155619153347     1.971912117843
O     -1.169099150372     2.076247531667     3.598913297706
C     -2.376666331403     1.847143021841     4.338981209384
H     -2.138257503483     1.279211426664     5.264090467808
H     -2.851216618925     2.810215953145     4.632848773643
H     -3.100689667178     1.243339704276     3.745809063823
Pd     0.370395847575     1.256444173175     0.109534820177
C      1.316390569987    -0.441247731182     2.930808248354
O      2.175762689331    -0.390866876914     1.802370584148
O      1.772985569083    -0.150775217490     4.039338782738
C     -0.096243583907    -0.882565139539     2.580695434754
H     -0.716750350905    -0.656836584084     3.458234552230
C     -0.139354171565    -2.393981177960     2.370857724330
H     -1.187939931852    -2.745578427787     2.291085667773
H      0.391394086003    -2.665878270968     1.437411948352
H      0.333573785895    -2.917537152008     3.228088136243
N     -0.614869873404    -0.202253070384     1.363335446617
C     -1.967053061463    -0.264383191062     1.262457561102
O     -2.770757122722    -0.774286178765     2.100044550821
C     -2.526380997373     0.320744638565     0.026872526701
H     -3.628630607872     0.261489559346     0.084513351657
H     -2.218584791294     1.373273837490    -0.047782285348
H     -2.169522419609    -0.283330880364    -0.822168118444
N      0.413661689528    -0.034999565454    -1.551690265576
C     -0.245985151280     0.320207034642    -2.700204215527
C     -0.232230119709    -0.518451826521    -3.795209707863
C      0.455378506981    -1.710979319480    -3.752321920226
C      1.120109814299    -2.033475826742    -2.599351189807
C      1.078320423449    -1.148060445843    -1.502546120243
H     -0.801014737458     1.249552796705    -2.741268255922
H     -0.760383265405    -0.233520399296    -4.690555837434
H      0.474393588350    -2.375718074067    -4.611997367741
H      1.684098164282    -2.939903439289    -2.501868331995
O      1.785093170446    -1.556136186874    -0.464607669711
H      1.790521750800    -0.983834556115     0.364568063738

