# STO-3G

title

0 1
C     -1.065145915940     3.587707820601     0.069233462263
C     -1.635634064802     3.571290701969    -1.229902987806
C     -2.582946547077     4.539021060362    -1.613405643199
C     -2.988577345976     5.536595198648    -0.706906159099
C     -2.435213960220     5.559101497975     0.590365688851
C     -1.489729016215     4.594896284375     0.975306579556
H     -2.842783278222     1.189561371111    -0.162312466629
H     -1.309653010181     2.828567916523    -1.954319382689
H     -2.992650730240     4.515788730005    -2.620421783099
H     -3.720953744595     6.283751697931    -1.003261665241
H     -2.747017973152     6.323128115437     1.299175441591
H     -1.090097725228     4.614119987547     1.986284799926
C     -0.078737432872     2.551363845501     0.447238827943
H      0.974420355697    -2.120326568735     1.784542395902
H     -0.069689053075     1.656933309921    -0.174997660815
C      0.800038764514     2.637323765148     1.477994381184
H      0.891087031817     3.543945979074     2.057779198311
C      1.713936615355     1.561141416338     1.876071208042
O      1.427062509486     0.359020795667     1.602300902372
O      2.775621314610     1.864335619759     2.746049802788
C      3.674372455659     0.786230011122     3.041410298693
H      4.481376420084     1.156702535285     3.710123523403
H      3.143822620390    -0.040064624764     3.564957819514
H      4.148031632536     0.399590769834     2.109919246182
Pd     0.604381779833    -1.474178994209     0.455291816647
C     -0.936946028875     0.049706965904    -2.026164543868
O     -0.966200913796     0.830340472184    -3.004016287358
O      0.167414746556    -0.321741734483    -1.387234982584
C     -2.230930827879    -0.497258436751    -1.341924880433
H     -2.070641262417    -1.547519981892    -1.078537646858
C     -3.468233911244    -0.370248902910    -2.201126402475
H     -4.346471068628    -0.769014891487    -1.653112719022
H     -3.645598842739     0.701599661418    -2.432135198470
H     -3.335996528384    -0.931386890826    -3.148588516315
N     -2.472039422277     0.245526183502    -0.091927123923
C     -2.041779124883    -0.200999663188     1.096165215853
O     -1.349728758378    -1.251745967858     1.272603512163
C     -2.462069625236     0.572725762635     2.277494403437
H     -3.564773679712     0.594790239166     2.291105785348
H     -2.065916695895     0.094076426721     3.188099977285
H     -2.065949928977     1.599481597041     2.175773586004
N      2.571185730209    -1.697632995177    -0.123387800390
C      3.320178159474    -2.703718588837     0.425404226954
C      4.691631719219    -2.699821975625     0.291346260956
C      5.322734613072    -1.699634867163    -0.414022498140
C      4.552539403072    -0.715381114814    -0.971301210305
C      3.149531532498    -0.745667740847    -0.815175174967
H      2.836213411993    -3.501145796989     0.976902567461
H      5.273310262387    -3.494290528856     0.730831398459
H      6.403462711489    -1.694695933075    -0.530950775269
H      4.978989267735     0.086389401916    -1.542957700091
O      2.525547325533     0.241908551775    -1.410785393369
H      1.460965873162     0.124897959477    -1.479302395657

