# STO-3G

title

0 1
C     -0.053452151521     3.394310593726     1.242449474012
C     -0.647627063347     4.538537685096     0.654495153788
C     -1.657741227456     5.258022735394     1.319693104121
C     -2.097017201196     4.843165049900     2.593402629003
C     -1.509740474508     3.707922438140     3.191305172076
C     -0.501172788117     2.989161977667     2.524831607589
H     -3.131389199136     2.325510587290     0.619313319842
H     -0.298183094472     4.874112351711    -0.320836015192
H     -2.089131045698     6.142661558269     0.856312830207
H     -2.872856178890     5.398926646961     3.115019068147
H     -1.840524763951     3.381562025419     4.175236998413
H     -0.094671049003     2.084277461094     2.965428309897
C      1.008283084496     2.670776947932     0.508325896202
H      1.003206103835     0.220261435579    -2.253232404366
H      0.909425860899     2.667027034047    -0.578767998521
C      2.068105432513     2.067136697956     1.097917350097
H      2.174853586968     2.066983369480     2.173811454608
C      3.156555783807     1.404941603610     0.369343053232
O      4.201767528995     1.073904666897     0.990955733881
O      3.027227442914     1.159247419258    -1.016171001698
C      4.187195926802     0.606613103021    -1.656325735711
H      3.983105150274     0.458597230913    -2.737512748968
H      5.056116406899     1.296924933225    -1.558724882591
H      4.454922316058    -0.378933626553    -1.211660912625
Pd     0.062700236566    -0.550211983360    -1.322857974689
C     -1.422210855271    -0.512605466661     1.011392176321
O     -0.415324978763    -0.140296562442     1.744238394535
O     -1.390963710020    -1.463478940984     0.143308858112
C     -2.695743228233     0.354593909412     1.153102595919
H     -2.692393193048     0.777384110576     2.162538570450
C     -3.975113075282    -0.423583101107     0.929316230673
H     -4.847120255965     0.240041591508     1.104241306748
H     -4.007785170712    -0.789225606033    -0.117180847916
H     -4.026862923603    -1.284936653648     1.626538543176
N     -2.703707439772     1.500641843107     0.211656845679
C     -2.237328376365     1.621898808631    -1.046651365650
O     -1.461521809068     0.853183528939    -1.680918315772
C     -2.736239108602     2.802433130802    -1.783858316442
H     -2.442627806128     3.705730959072    -1.225784657186
H     -2.299815788558     2.817428690112    -2.796856175514
H     -3.836375383389     2.730796982775    -1.837174470468
N      1.604282509586    -1.785992047828    -0.926139137514
C      2.117686451010    -2.535862460864    -1.949442969174
C      3.240663347354    -3.307007642124    -1.746731173723
C      3.845124009388    -3.348843361257    -0.510264859643
C      3.303944311570    -2.603193052917     0.501301682266
C      2.151981529038    -1.819465087027     0.267056848655
H      1.647901824315    -2.510089588112    -2.925751302784
H      3.641379355323    -3.891370968055    -2.559201475045
H      4.730648200047    -3.956135629975    -0.341395219510
H      3.734109183845    -2.581876621062     1.484293761339
O      1.744698401724    -1.154215525613     1.310417569969
H      0.744616044101    -0.685746713304     1.449994544207

