# sto-3g

title

0 1
 C                 -4.25635058    0.34918386    0.40968968 0
 H                 -3.77968010   -0.62262065    0.51828104 0
 H                 -5.33965946    0.39661764    0.48387528 0
 C                 -3.51494356    1.45553433    0.18977211 0
 H                 -3.95544425    2.44181837    0.07630245 0
 C                 -2.03503273    1.38344164    0.08948986 0
 O                 -1.33480002    0.35704739    0.18949183 0
 O                 -1.50142404    2.64009974   -0.13729875 0 9 12 3
 C                 -0.02519547    2.73816590   -0.26264038 2
 H                  0.42465980    2.35583549    0.66120452 2
 H                  0.29344052    2.09345517   -1.09019144 2
 C                  0.30271568    4.20638162   -0.50718039 2
 H                 -0.04336217    4.82705591    0.32683374 2
 H                  1.38846146    4.33317525   -0.60753408 2
 H                 -0.17469715    4.56431868   -1.42616889 2

