# STO-3G

title

0 1
C      1.677223702312     2.631895819044    -0.099007935636
C      1.726927846871     3.608237215185     0.932221093224
C      0.698087161674     4.546413489320     1.053668035394
C     -0.395471393033     4.536057273385     0.148230729950
C     -0.451719843608     3.591299336116    -0.879207002554
C      0.586044303626     2.627168415407    -1.017026310297
H      2.509809459609     1.958895670533    -0.264811168920
H      2.572400953422     3.630179274928     1.614302454310
H      0.731867040514     5.291642268904     1.844908877988
H     -1.191526574850     5.268521960465     0.258462548928
H     -1.283540872638     3.581745809452    -1.575567720514
H      0.620195923366     1.983531090671    -1.891478253909
C      2.055463020419     0.669090346890     3.088851045672
H      1.589671462211     0.151294259879     3.924029048638
H      1.711761840015     1.685315462285     2.922196820948
C      2.936029699597     0.073986711347     2.247707523816
H      3.305077065669     0.643225788992     1.412427427248
C      3.360824812767    -1.346271917171     2.362213532821
O      2.802327794970    -2.071800245019     3.224534766889
O      4.312986578098    -1.944739730148     1.512239285620
C      4.927676853127    -1.151143323472     0.487998147362
H      5.649831157727    -1.784743520343    -0.071805961975
H      4.175750190451    -0.790679701753    -0.248910511722
H      5.493714607169    -0.299096943881     0.925599762073
Pd     0.284474281990     0.658660428933     0.351281427888
C      1.486164888909    -1.561045305174    -0.998342396987
O      1.586226477952    -0.218695787569    -0.899747138405
O      2.225905918006    -2.252830988364    -1.721222885488
C      0.346153328838    -2.199893120227    -0.134045822474
H      0.714132413992    -3.176166931839     0.208699083183
C     -0.908983515541    -2.400573400414    -0.956813160969
H     -1.687629584626    -2.899508054385    -0.345395132667
H     -1.299007850645    -1.415001788619    -1.288979264634
H     -0.689057918131    -3.029668364160    -1.844836503067
N     -0.002776509993    -1.278265740415     0.962757708972
C     -0.377361533104    -1.577853506602     2.172038647867
O     -0.730768125216    -0.670565714659     3.070447391810
C     -0.415682942853    -2.973466479780     2.641451331611
H     -1.102652377637    -3.548325989612     2.000126697038
H      0.611472601518    -3.376936126896     2.604348622283
H     -0.771160981116    -2.997380894535     3.688241272257
N     -2.666086827179     1.398859144005     0.234534842508
C     -3.983298906599     1.613412576764    -0.070462439212
C     -4.848862167246     2.097921175062     0.894413953975
C     -4.394453034342     2.370328431316     2.168302304033
C     -3.071459041229     2.146155207176     2.447891581386
C     -2.233005117461     1.651327152721     1.421113660439
H     -4.344990378480     1.401536810241    -1.069736732864
H     -5.883391618362     2.263457645222     0.643502589884
H     -5.067970518192     2.753645986769     2.930056489091
H     -2.646945109033     2.342789439358     3.410852087185
O     -0.951103410549     1.458854788531     1.784618949108
H     -0.807822330771     0.300587286866     2.682466744018

