# STO-3G

title

0 1
C      1.500458110765     2.877092002261     0.102092959706
C      1.470074222599     3.781980489956     1.197851544044
C      0.394110462941     4.660158229896     1.348358418214
C     -0.672178511216     4.657269706753     0.410269608287
C     -0.653424768153     3.780585679527    -0.677001482057
C      0.436812383933     2.881911328108    -0.847537840446
H      2.371376523471     2.257888998482    -0.078033875317
H      2.292415765302     3.794937319422     1.908013809124
H      0.368614571281     5.351311253834     2.187413777228
H     -1.506604803084     5.341530231227     0.543577139173
H     -1.465159830190     3.775911104755    -1.396667255220
H      0.526586956623     2.297230503973    -1.758572818369
C      2.113930534763     0.660817468273     2.997273321360
H      1.564828576360    -0.143816379074     3.476926347209
H      1.741489803865     1.660673203664     3.200892447779
C      3.154496926380     0.449156293316     2.159719215949
H      3.655299502870     1.284769272872     1.690692168633
C      3.657345522325    -0.874202299223     1.755292008354
O      3.048869194532    -1.921539135207     2.115052074161
O      4.809710438707    -0.937058714570     0.954166200281
C      5.162577722178    -2.236749037587     0.460856308683
H      6.077829940147    -2.155816933442    -0.163973506847
H      5.372064846206    -2.937600691477     1.300009390772
H      4.349622226728    -2.650359167281    -0.178315800760
Pd     0.236358549685     0.813537482531     0.405518788054
C      1.553560825043    -1.254759654120    -1.071139818893
O      1.577148022854     0.082113474599    -0.899821172848
O      2.334273676126    -1.874822043702    -1.817278990152
C      0.435548547963    -2.000660458059    -0.265880022221
H      0.851814519128    -2.974380009933     0.024248904478
C     -0.794121095971    -2.220255442255    -1.121265176369
H     -1.554079227230    -2.792659938265    -0.552037147557
H     -1.230070026656    -1.238647838697    -1.404555528110
H     -0.527468007399    -2.785110145333    -2.039080374260
N      0.017853958673    -1.168963529001     0.876565324531
C     -0.320850344653    -1.565068763152     2.067460661144
O     -0.720171111298    -0.739536117583     3.025573496974
C     -0.261968684150    -2.985682473626     2.452690386022
H     -0.909634695145    -3.564906061676     1.774848264048
H      0.791367136817    -3.311705119606     2.388469125494
H     -0.614297716098    -3.098495888169     3.494593584534
N     -2.756943771556     1.435572194118     0.326663006783
C     -4.079691487467     1.629833929326     0.032843316283
C     -4.960435262665     2.022613684996     1.025422487407
C     -4.515220271238     2.223423355467     2.315712527776
C     -3.186290807424     2.020887400199     2.583349403270
C     -2.332134433370     1.622412207965     1.527650011858
H     -4.433868755138     1.474040249826    -0.979360237988
H     -5.999084626993     2.173881985297     0.782943099444
H     -5.200263616454     2.535763013761     3.099263722858
H     -2.767872574412     2.168561320382     3.557565538827
O     -1.044729840452     1.449431634633     1.882390244104
H     -0.854531408315     0.251650921349     2.695769828338

