# STO-3G

title

0 1
C     -4.123914192199    -0.916320474504    -1.193588395001
C     -4.397577654028    -0.545534645005    -2.512978515971
C     -3.606819324517    -1.056858730312    -3.573499309886
C     -2.521940559830    -1.907251016016    -3.312523222767
C     -2.242011638077    -2.301513590355    -1.981765138178
C     -3.061503697517    -1.824669186626    -0.917422211142
H     -4.690189376065    -0.497753114196    -0.369613606972
H     -5.197771872158     0.155581385209    -2.725656126396
H     -3.827955847023    -0.764420522603    -4.596879356173
H     -1.902275445303    -2.274135953379    -4.125735757065
H     -1.452556496287    -3.013708841065    -1.763049940450
H     -2.983878112141    -2.287170952951     0.063768394071
C     -4.104988351677     1.890811778581     1.093004602352
H     -4.921516804656     2.556394351674     1.362512590134
H     -3.713397553095     1.960470176541     0.081933434842
C     -3.556276051665     1.014756001965     1.967350395049
H     -2.736271026119     0.386061395231     1.639152821286
C     -3.968817768238     0.834746930886     3.368478168296
O     -4.912016010722     1.519932251131     3.847978796641
O     -3.275936309592    -0.104600340267     4.153841743183
C     -3.734369470784    -0.250845199673     5.505386263512
H     -3.119418285095    -1.017954860213     6.023423237689
H     -3.637493933628     0.708684365321     6.062579046855
H     -4.796938872425    -0.584420729149     5.528547733290
Pd    -1.201078365797    -0.544666179553    -0.227630825098
C      0.543413928393    -2.197601114329     1.302210784196
O     -0.504408923502    -2.273959037263     0.455051294303
O      1.253353517392    -3.172072794927     1.605565620039
C      0.773252857082    -0.795933316461     1.948162196628
H      1.861687945409    -0.686695553630     2.032284764674
C      0.148833510667    -0.763812106324     3.331798548258
H      0.323857166706     0.210808441061     3.827353298407
H     -0.945878393140    -0.925472047884     3.248427266443
H      0.583010437694    -1.565775312311     3.965650188141
N      0.144294595482     0.273359347871     1.133603930410
C      0.321255442216     1.568416171491     1.230320954063
O     -0.395581560728     2.456432677495     0.580671041815
C      1.349588520060     2.182136274308     2.096198486854
H      0.824709615582     2.792568596497     2.852023216845
H      1.992835227471     1.443964372774     2.590337754833
H      1.973348308215     2.838961233782     1.463391618998
N     -2.743375317951     2.311217587021    -2.769001652481
C     -2.660660758248     2.639508274719    -4.095530608289
C     -1.607356263087     2.170589916132    -4.862504351640
C     -0.628421773844     1.380604207668    -4.296556262255
C     -0.725001432436     1.080273674577    -2.961881690524
C     -1.834448624037     1.582268504337    -2.236012371816
H     -3.428293557008     3.258660676872    -4.544530272109
H     -1.556825201355     2.429790955533    -5.906831871375
H      0.202353509870     1.012361452098    -4.892324555003
H      0.008639002394     0.485995856775    -2.461887918713
O     -1.869458737678     1.268786251508    -0.917833186905
H     -1.129320315165     2.047645477607    -0.096878332956

