# STO-3G

title

0 1
C      1.674423178784     2.649288304879     0.406825628716
C      1.464577849989     3.543520956330     1.490558478382
C      0.425309612088     4.476148375344     1.433609754008
C     -0.427206254576     4.536492990457     0.299593216972
C     -0.231622567017     3.667259612691    -0.776378996848
C      0.824656542604     2.713330242782    -0.737873627408
H      2.535437415448     1.991381285710     0.408431476910
H      2.116132501880     3.494453971411     2.358335562185
H      0.262679891151     5.159220974554     2.263935684383
H     -1.236053400542     5.262633124833     0.273873585449
H     -0.879607678843     3.711605300381    -1.646029263386
H      1.069375228893     2.133127338013    -1.622786339818
C      2.327280401453     0.332161957997     3.089233244820
H      2.532480247619     0.375142090921     4.156644067879
H      1.375656145726     0.753732351216     2.777995084206
C      3.171754251570    -0.212892280671     2.178969055693
H      2.855489731949    -0.218309052873     1.148654024825
C      4.493964950380    -0.802627347090     2.517502476213
O      4.853694794187    -0.816975848700     3.721580621007
O      5.369862295698    -1.346483907843     1.554549971101
C      4.948399424787    -1.397497585042     0.184366269386
H      5.757620248493    -1.852690238277    -0.427004820419
H      4.047856525996    -2.039195620574     0.068153652631
H      4.760069020283    -0.378071594294    -0.221342466623
Pd     0.222431687232     0.691181423473     0.420705032549
C      1.362459375923    -1.496261688087    -1.021020714054
O      1.564263985303    -0.177190545673    -0.803215922083
O      2.091463839559    -2.192935816549    -1.748643193157
C      0.134022536304    -2.104576936624    -0.261490038055
H      0.396990488147    -3.139275189788    -0.005259872207
C     -1.106455236382    -2.106042850192    -1.128065297878
H     -1.945001884198    -2.586565500889    -0.583871483242
H     -1.397191445064    -1.061166262378    -1.369957255662
H     -0.917590477724    -2.664547948722    -2.068808269422
N     -0.163211322300    -1.256983180049     0.904062622024
C     -0.545906009293    -1.612188731694     2.093831563313
O     -0.853643158640    -0.751227691220     3.051154336150
C     -0.619196210602    -3.031719447353     2.476965145997
H     -1.332853097327    -3.541329612814     1.808095992698
H      0.393194384875    -3.463352254335     2.397918683417
H     -0.969667787475    -3.110932881852     3.523381822850
N     -2.677255680556     1.433374437183     0.177102965562
C     -3.966804360315     1.679565680508    -0.211236641083
C     -4.892697520329     2.138986418634     0.709066115889
C     -4.526091153410     2.357453271355     2.021262215560
C     -3.228789645236     2.103872126856     2.384051945733
C     -2.326130981771     1.638865612340     1.399397598759
H     -4.259929014544     1.510076639875    -1.240614339407
H     -5.904694880632     2.330265816505     0.392729879984
H     -5.246665858218     2.723513863652     2.747702980459
H     -2.869229974895     2.264103616065     3.379792972769
O     -1.073027318138     1.420354990135     1.838045107726
H     -0.943628141498     0.236313456874     2.710289201927

