# STO-3G

title

0 1
C      0.647739181174     3.571693558517     0.485434777108
C      1.986577659602     3.069600754734     0.411977125385
C      2.854594035103     3.492416536220    -0.634960453301
C      2.416009602438     4.408757253406    -1.593780657400
C      1.086488164594     4.905594866737    -1.533903747589
C      0.215101116349     4.478518987110    -0.527806949163
H     -3.480899050108    -1.273604339434     0.065750154563
H      2.414843685652     2.510361600164     1.241452477671
H      3.870267150517     3.104922128507    -0.666499228437
H      3.090773060491     4.747159275520    -2.376482652197
H      0.747680397039     5.629651061016    -2.271669946755
H     -0.800067426494     4.867121926195    -0.483631371708
C     -0.249454317070     3.228600206514     1.683611544722
H      0.106551600275     3.740611112529     2.587115669179
H     -1.266401163268     3.579932660135     1.485555185229
C     -0.255146707387     1.689455658677     1.787972700028
H     -1.236066774163     1.241817169162     1.716886128552
C      0.542955258440     0.989423203069     2.818840931185
O      0.568386522922    -0.266743304595     2.796593077510
O      1.489339506213     1.715327077126     3.563763921455
C      2.288356463090     0.948958531553     4.476390456092
H      2.982427274343     1.626850738277     5.018375131436
H      1.646885205650     0.434368028859     5.227850898903
H      2.897379276906     0.191780679633     3.931635434365
Pd     0.484792438367     1.266259858779    -0.103176548370
C     -0.693915858286    -1.423977642659     0.333783706163
O     -0.961712219952    -0.240886816129    -0.138720214141
O      0.435230958035    -2.022333012704     0.219250748013
C     -1.848575283010    -2.086526844879     1.129590920755
H     -1.546579724175    -2.075140713974     2.184081945672
C     -2.124263650117    -3.513081929940     0.709082899796
H     -2.936338729495    -3.931648490753     1.338650947287
H     -2.447951151693    -3.529539329395    -0.350980098185
H     -1.212277508583    -4.133143933353     0.831782403833
N     -3.083429477205    -1.318853995951     0.996520304002
C     -3.425093929432    -0.354200692125     1.893771438394
O     -2.795722395253    -0.075222473005     2.941425009073
C     -4.651961688442     0.402394081031     1.563526669959
H     -5.479375656134    -0.322717499823     1.483161954529
H     -4.848282251308     1.127170056085     2.372159453641
H     -4.489849435672     0.920079411572     0.602662053621
N      1.288551449025     0.799734079437    -2.060664817226
C      1.170262635701     1.695903276006    -3.087956078642
C      1.912822628038     1.531406934381    -4.239644491368
C      2.769454089647     0.460929871588    -4.371498260856
C      2.851489275176    -0.436315358843    -3.339906512703
C      2.064342735966    -0.242035614750    -2.182367580771
H      0.497077347549     2.538682065500    -2.992240684273
H      1.817523330426     2.247541279443    -5.038799425926
H      3.357903814812     0.326025472813    -5.275105844910
H      3.484772688062    -1.299836648739    -3.384555770576
O      2.212059538527    -1.182256871899    -1.274420575737
H      1.445729954107    -1.429892797677    -0.568651163200

