# STO-3G

title

0 1
C      0.769326501537     3.765508784590     0.318693757129
C      2.105578278555     3.279383837255     0.153371232706
C      2.855439736224     3.621699918687    -1.007854157169
C      2.300393749256     4.439828304040    -1.994738158177
C      0.969786110026     4.915458013010    -1.846659056257
C      0.214613802673     4.569096782471    -0.722759652564
H     -3.400687700754    -1.110782801646     0.325883880620
H      2.627933547768     2.805792684071     0.982716398685
H      3.874230488187     3.253497106672    -1.104055694719
H      2.887009979110     4.720734740211    -2.866180883207
H      0.540977523660     5.563749736677    -2.607581037374
H     -0.799310098311     4.946363695659    -0.608967543389
C      0.012667984506     3.528889162709     1.633475276375
H      0.506988460825     4.064996562433     2.454205059643
H     -1.003761490332     3.922445566639     1.544223058210
C     -0.044436135103     1.997902039620     1.833874880284
H     -1.046242086401     1.592400732506     1.864057591417
C      0.806906579636     1.326810785328     2.843925938864
O      1.867155415908     1.888486461395     3.225545056772
O      0.564493825761    -0.025057906029     3.128386122508
C      1.491183319751    -0.661794512271     4.018256203184
H      1.184776911976    -1.719223328058     4.170412371737
H      2.518789258097    -0.658620491438     3.589020180605
H      1.498766994194    -0.155844221735     5.010173764399
Pd     0.571592419736     1.435962091434    -0.064973259112
C     -0.591598474391    -1.212217303418     0.641678230455
O     -0.864910512250    -0.065699976942     0.092955516520
O      0.553890326650    -1.789494449478     0.603241633037
C     -1.761741871987    -1.848647021081     1.436250767855
H     -1.479822395729    -1.802902208715     2.494946070848
C     -2.027195072561    -3.288756159967     1.057495398076
H     -2.851102067381    -3.687958709542     1.684395482720
H     -2.330899604506    -3.340871463643    -0.007527407193
H     -1.117123895854    -3.903072794221     1.217225067562
N     -2.992305462112    -1.086520456558     1.252785082255
C     -3.302905785794    -0.038767732967     2.065086974694
O     -2.651931966037     0.315601555980     3.075608164310
C     -4.520528260376     0.710207428214     1.687228830277
H     -5.362527135444    -0.002397555824     1.681060588351
H     -4.690835316410     1.506111926865     2.432438246282
H     -4.363109419882     1.139954212408     0.683147799247
N      1.277666423347     0.769972840889    -2.004798547247
C      1.103493324438     1.550666101703    -3.115147424494
C      1.802295280760     1.273775174488    -4.272726074700
C      2.671064061248     0.206219875596    -4.325945985435
C      2.808827848206    -0.575558029063    -3.209612541029
C      2.066119016186    -0.267918400478    -2.047596191965
H      0.421009470568     2.390874987096    -3.080850579441
H      1.663953824171     1.900297075571    -5.138179324492
H      3.225840328406    -0.016080939328    -5.233598153429
H      3.455334846729    -1.430115025563    -3.188867873228
O      2.265479527565    -1.105610772403    -1.051481455867
H      1.538273500881    -1.273708708269    -0.290849498394

