# STO-3G

title

0 1
C      0.865324780315     4.179278497510    -0.106980516918
C      2.077237889985     3.460424159287     0.137269426942
C      3.049055325751     3.320084623829    -0.892233988191
C      2.827378725009     3.878561338324    -2.153138028583
C      1.621308498388     4.582747247642    -2.412662364690
C      0.657069845967     4.724584894996    -1.411706043196
H     -2.939929220295    -1.205107804138     1.701313786167
H      2.328954500954     3.138781501862     1.145934413791
H      3.966985410879     2.777277161364    -0.680716164091
H      3.579572797134     3.783259359126    -2.932888259813
H      1.451860258946     5.022471448980    -3.392793642895
H     -0.260281614434     5.274644076196    -1.610203371249
C     -0.117438928582     4.445907121329     1.046243688006
H      0.419654364933     4.886986658529     1.895488190712
H     -0.880138143286     5.159579622962     0.722215175612
C     -0.765368113179     3.079407523615     1.379239896442
H     -1.819950207357     3.009913356693     1.130358335319
C     -0.471332214946     2.409705987222     2.664817443134
O     -1.398226769625     1.831040891651     3.287752275984
O      0.830117425290     2.479779406255     3.189054511412
C      1.069248986625     1.714913056011     4.378366603172
H      2.126637182881     1.846911415574     4.694289464404
H      0.412115995437     2.056767052811     5.210154598345
H      0.898529997637     0.630791966754     4.189869832490
Pd     0.155852190011     1.988350936160    -0.093262725856
C     -1.732869106772    -0.242185716390    -0.784235633233
O     -1.367006289258     0.616618370146     0.147674128712
O     -1.778523757107    -0.059210492425    -2.029489098680
C     -2.069892004555    -1.655842411049    -0.179470757919
H     -1.252066477051    -2.321168631645    -0.482968852514
C     -3.375436146918    -2.224594953991    -0.689383561576
H     -3.538089408559    -3.230699669074    -0.250783523204
H     -4.209646821428    -1.560541320748    -0.385491542696
H     -3.351650840288    -2.307434463072    -1.795605002036
N     -2.121546268914    -1.632135286006     1.281138381169
C     -1.022309914430    -1.753141345861     2.043475625875
O      0.145745157841    -1.976141352212     1.613392919308
C     -1.233303304869    -1.674617136036     3.502145687948
H     -1.949635863173    -2.465830663590     3.779877884301
H     -0.268502552357    -1.825942325068     4.014180802842
H     -1.649877151630    -0.679954960083     3.738150255212
N      1.147518878631     0.682997738387    -1.514115150505
C      1.060265603711     0.742155893045    -2.878354749199
C      1.474207676433    -0.335305024374    -3.640056176225
C      1.958902337914    -1.475663073685    -3.034151452112
C      2.034732737279    -1.504214218932    -1.664568356971
C      1.611039842406    -0.370716007686    -0.934176491754
H      0.666868696761     1.631913509439    -3.355905764505
H      1.394218868627    -0.285136628844    -4.712977127123
H      2.276475800837    -2.328596632155    -3.627804463155
H      2.415021819274    -2.351575195340    -1.131079151078
O      1.718911695946    -0.418673695930     0.402532455612
H      1.159070213381    -1.125864687575     0.879493745981

