# STO-3G

title

0 1
C      1.195414892713     3.390678558963     0.150987687038
C      1.958497857526     2.316181783025     0.706449570285
C      3.090790436207     1.807923106700     0.011445046021
C      3.466392992246     2.355040156134    -1.217673284997
C      2.719347027689     3.425701897979    -1.775605818246
C      1.601431314900     3.930141936154    -1.107436525153
H     -2.173780542697    -0.624673327937     1.856933947050
H      1.772586526718     1.980417428062     1.723792929497
H      3.655711904168     0.986670002838     0.442936615214
H      4.329746180820     1.960674379224    -1.748019470207
H      3.023262295434     3.854140695349    -2.727845544357
H      1.036323067387     4.756912790223    -1.532091700908
C      0.053286616185     4.022332238989     0.959638468704
H      0.465145791852     4.497598191037     1.859832442969
H     -0.416977199363     4.805011168068     0.358400865801
C     -0.974057028923     2.896644078620     1.260252350717
H     -1.934096037085     3.040986984415     0.771793374890
C     -1.175981984746     2.453911098913     2.657841918842
O     -2.317376163094     2.077400093064     3.025634944681
O     -0.125001217890     2.596085903374     3.581835976019
C     -0.486769424455     2.485933454925     4.966872604703
H      0.420490685690     2.610678643444     5.596930429127
H     -1.215038438656     3.280383024491     5.247880947787
H     -0.931469108798     1.490535176166     5.190885895005
Pd    -0.190105006612     1.556023162176    -0.115790982224
C     -2.431290179409    -0.331278890915    -0.835845541204
O     -2.123764339681     0.920042951862    -0.506984527976
O     -3.257786635000    -0.651021129691    -1.723527301341
C     -1.665704866454    -1.442863236280    -0.018901914336
H     -0.717630213531    -1.635322378541    -0.529976341928
C     -2.434934401231    -2.742768643459     0.075429152784
H     -1.844481925240    -3.487027101189     0.648525846589
H     -3.395995432114    -2.562876141914     0.599267379750
H     -2.637710635030    -3.143722101706    -0.939313672155
N     -1.378437058442    -1.005379334958     1.355834039786
C     -0.162477993340    -0.987107282052     1.918735769109
O      0.933779918463    -1.163925634668     1.313814464759
C     -0.087975564682    -0.777147144442     3.377379241686
H      0.332061161603    -1.696827181185     3.818398938721
H      0.591112168154     0.069715745159     3.564824382855
H     -1.089893784356    -0.584050577497     3.801398761179
N      0.509318074595     0.529038949052    -1.894594359844
C     -0.003850952218     1.131037719156    -3.013493918850
C      0.422576688614     0.740340777521    -4.266364029316
C      1.355599135781    -0.263154167673    -4.404782391373
C      1.837949516950    -0.861086049592    -3.270626350533
C      1.370099555817    -0.434882438565    -2.009065127574
H     -0.735025294069     1.924680101416    -2.911206555121
H      0.013020558828     1.221151243693    -5.139466082511
H      1.693496176561    -0.578280667917    -5.388368595393
H      2.554996387220    -1.656554768608    -3.306602267615
O      1.885837025109    -1.110562826372    -0.997718364703
H      1.457089993786    -1.032819832105    -0.064356526275

