# STO-3G

title

0 1
C     -0.513242064092     0.141100931401    -1.997248813717
C     -0.405511512555     1.370262642497    -2.686572791903
C     -1.085014868091     1.554282253581    -3.910284588334
C     -1.858967194382     0.513229121761    -4.455965536438
C     -1.958630351551    -0.713407503151    -3.769778232378
C     -1.294149983754    -0.903034742848    -2.540805110272
H      1.224491395158     2.281719880061     0.996488483299
H      0.202994591251     2.181685886422    -2.292030572624
H     -1.002236390377     2.506904214675    -4.430350676011
H     -2.378490580558     0.655761831299    -5.400796272163
H     -2.559741746539    -1.521634593358    -4.181154638387
H     -1.402383675099    -1.840910352474    -2.003856676219
C      1.224485952634    -0.910636394982     2.087107268878
H      0.331909228146    -0.804753780038     2.694937697350
H      1.219846452806    -1.754790621595     1.398520745966
C      2.321528107441    -0.121498397473     2.229468969719
H      3.179066647252    -0.262757131159     1.584106344219
C      2.480274037899     0.930968893494     3.248580544033
O      3.627203489749     1.430632407903     3.408863824983
O      1.491135281926     1.072822218153     4.244503150774
C      1.722012364458     2.124770963374     5.191501902079
H      0.883918615111     2.159213463362     5.918613483408
H      2.665223322468     1.949263922788     5.757123979141
H      1.779336830796     3.109533698165     4.672895274729
Pd     0.411481818135    -0.191873357850    -0.252411869845
C     -2.491151425250    -0.890414326464     0.742707831049
O     -1.224835302786    -1.187691878355     0.487035984916
O     -3.392363464521    -1.737766116911     0.945672156913
C     -2.897868899722     0.635551484374     0.859353679855
H     -3.509504734647     0.707959764291     1.765401731721
C     -3.745537248624     1.089414835029    -0.308502349111
H     -4.026650178847     2.155200867948    -0.176099316863
H     -3.189216921395     0.981243302890    -1.262360758535
H     -4.671984133490     0.479677021380    -0.364950807336
N     -1.730003537851     1.517022910440     0.929719530484
C     -1.052090391360     1.965185693929     1.989502173411
O      0.143510799033     2.395418762877     1.916172827707
C     -1.719675040592     1.973644885595     3.302269364462
H     -2.646397249232     2.566334292231     3.221197299493
H     -1.916418634330     0.932084880689     3.605359245618
H     -1.040214085691     2.442940813490     4.037584567075
N      2.116475487062     0.649469915407    -0.995059018556
C      2.704402161065     0.026780694581    -2.065030194568
C      3.855877052633     0.541886948426    -2.620650314206
C      4.426937584044     1.685079367009    -2.107632760865
C      3.814782990080     2.295042769409    -1.047063280075
C      2.630015046124     1.747567915601    -0.507016375522
H      2.266572122004    -0.878214378369    -2.470128103770
H      4.312448482309     0.042359891376    -3.459172437590
H      5.338754362735     2.094072187673    -2.534485497450
H      4.204543120040     3.185228172940    -0.593941035390
O      2.144094309910     2.429867647625     0.498373758734
H     -1.171467124739     1.538252920405     0.073810218752

