# STO-3G

title

0 1
C      1.629155206813     0.444609703712    -0.065274731744
C      2.958267006640     0.812005822575     0.250890006904
C      3.737889572784     1.537261866756    -0.675427519042
C      3.205504972410     1.884819349120    -1.931169754076
C      1.885541268274     1.512080878041    -2.254109257446
C      1.096272343441     0.802046950012    -1.326509555731
H      1.624354500707    -0.282520147616     3.837824463338
H      3.399975812999     0.537438655054     1.207541697286
H      4.755555588914     1.821638710886    -0.413747107187
H      3.809352246464     2.438159021537    -2.646940565075
H      1.464545206998     1.779467406840    -3.221222991633
H      0.070390595848     0.545815720477    -1.576983801271
C     -0.949433772860    -1.469617758832     3.016564681093
H     -0.294587263484    -1.778528367592     3.827288523534
H     -1.464778613112    -0.525917627974     3.148930530868
C     -1.212333189719    -2.255334509064     1.921012989301
H     -1.900382975877    -1.899176343002     1.168847619179
C     -0.693051251317    -3.620965321182     1.727919728013
O     -0.091498844549    -4.210513646482     2.663757211282
O     -0.808159213439    -4.203591031675     0.453673989737
C     -0.244219900297    -5.515851748936     0.315075183373
H     -0.392635215918    -5.874218337401    -0.726277743520
H      0.849294348596    -5.502336908772     0.528498424475
H     -0.743010080058    -6.234975971127     1.004234422144
Pd     0.444008507564    -0.618020567452     1.178962613457
C     -1.565663255570     1.771232384411     0.718906227988
O     -1.215297630743     0.491718129847     0.681352726137
O     -2.549135876655     2.251974756477     0.108932487507
C     -0.739713437379     2.760276813823     1.641295689002
H     -1.489974505464     3.320677472530     2.209781205125
C      0.067491148531     3.753026585124     0.834641607037
H      0.595515165015     4.449855220892     1.518704988925
H      0.819916784411     3.229997811049     0.209412325227
H     -0.602820574370     4.340749630206     0.172475503277
N      0.186050707588     2.050830301507     2.525358501397
C      0.070926073022     1.682917666368     3.802535785802
O      0.791560690899     0.776465026075     4.331083371338
C     -0.930895299558     2.358260537195     4.645472566390
H     -0.721541749917     3.441643697032     4.633651660952
H     -1.937100077207     2.129791890587     4.257543419067
H     -0.838276430275     1.974548034354     5.679553107482
N      2.013735878844    -1.835852384761     1.611346573909
C      2.433494743444    -2.668108537920     0.607352711830
C      3.473861644110    -3.545817473271     0.822611239063
C      4.102409757715    -3.592533085055     2.046893586002
C      3.679475573068    -2.736685821737     3.027114069227
C      2.609503382535    -1.848540230505     2.774682013681
H      1.936519164706    -2.643409703970    -0.355580582286
H      3.792116974125    -4.200327224434     0.028751079032
H      4.919377938163    -4.285420648593     2.228507381467
H      4.125873808323    -2.716058262444     4.000925382741
O      2.325750349669    -1.070428023670     3.789126453213
H      0.907962194114     1.522921041244     2.028663602713

