# STO-3G

title

0 1
C      1.855207052231     3.170777487799     0.449558258186
C      2.471267402654     3.103757047669    -0.837933326884
C      2.351570112574     4.155214155307    -1.748947964812
C      1.599736655508     5.313022532119    -1.416011717236
C      0.996539901548     5.415581152183    -0.158168347717
C      1.123496442279     4.357758726293     0.786546974101
H     -0.557754133102    -0.389406893023    -0.391548468720
H      3.053512944462     2.221600798535    -1.086270220167
H      2.838003162475     4.084414515804    -2.718276074937
H      1.510164176559     6.125480821385    -2.132196393776
H      0.448908947552     6.312005033423     0.120266297519
H      0.793878580122     4.527675074095     1.809124130175
C      2.077764830708     2.059075869631     1.495862807428
H      2.693416606599     1.270195085948     1.057301803500
H      2.587939690330     2.460951209502     2.377770956801
C      0.686913152307     1.473434170556     1.812390387882
H      0.572106048064     0.443928242798     1.489414685166
C     -0.001735861774     1.738526310784     3.091492378811
O      0.124001363550     2.869562253344     3.629760948450
O     -0.965351634563     0.821688243939     3.545640452422
C     -1.627951978040     1.164081918660     4.771042725809
H     -2.345342607888     0.359276237436     5.040375881186
H     -0.894029939010     1.264386019486     5.603013446288
H     -2.196721918235     2.115418687552     4.661920192723
Pd    -0.327047480820     2.514905790435     0.337865913350
C      0.266325425061    -2.400618632950     1.327922403558
O      1.132649093303    -1.420892763119     1.164327653238
O      0.417359468072    -3.453019093240     1.993234586259
C     -1.139934332128    -2.178374489851     0.623683537433
H     -1.894773445891    -2.544168137777     1.327920226762
C     -1.257627411517    -2.977305599132    -0.656394760764
H     -2.259378894908    -2.816911005513    -1.104099749633
H     -0.486287106598    -2.633458029151    -1.376667474973
H     -1.114043436558    -4.057971169728    -0.449164323842
N     -1.315354356276    -0.760987985593     0.277353364586
C     -2.177399148078     0.123222655928     0.735565679598
O     -2.077121063697     1.398435661456     0.512399201884
C     -3.346143435903    -0.326920839151     1.514397554482
H     -3.900339859847    -1.062952277112     0.908042524774
H     -2.978363881640    -0.766512490145     2.456462778902
H     -3.989130659458     0.543524026050     1.737177093274
N      0.386208218632     0.018979381353    -1.709485927848
C     -0.280448739639     0.404236070623    -2.840708138383
C      0.422687613267     0.691315147993    -3.995750735266
C      1.796097109922     0.576622370256    -4.025369004779
C      2.441292698822     0.178226261130    -2.884499126598
C      1.683584902130    -0.099784075218    -1.723522252767
H     -1.360468018759     0.492850621011    -2.822788871041
H     -0.112531766825     0.996868985919    -4.879056456118
H      2.353330589652     0.793144706112    -4.932690878042
H      3.504551134675     0.057025100542    -2.838540739285
O      2.397237709466    -0.472781926176    -0.678963269245
H      1.840570002574    -0.912762154389     0.144933318979

