# STO-3G

title

0 1
C      0.907261879837     2.645705136810    -0.966126518626
C      2.254150155647     3.063065413952    -0.928890592464
C      2.634736893219     4.283716505686    -1.525074650182
C      1.678231068957     5.089099590848    -2.173496836786
C      0.335947471643     4.666927903079    -2.224879373809
C     -0.050913881044     3.449395741165    -1.625285333152
H     -0.697085204323     0.415729883893     3.911499950754
H      3.010455702633     2.439161920864    -0.456102844660
H      3.676871502227     4.595502030568    -1.488410097002
H      1.976475279873     6.027588262538    -2.635103764740
H     -0.410197042908     5.279400211688    -2.727547992062
H     -1.096567463586     3.146117041205    -1.670890442281
C      0.642035701300     1.601416882905     1.928874449082
H      1.385089826265     2.391946568172     1.937872936678
H      0.956332393531     0.639846885418     2.325237094439
C     -0.703357041862     1.856323216601     1.649064104503
H     -1.430504372374     1.062027194185     1.749070617867
C     -1.259792720311     3.200803440180     1.428829677332
O     -2.456056510616     3.304513783694     1.051203335068
O     -0.433004182311     4.329178842999     1.566709119425
C     -1.031542789741     5.591785312608     1.244500500774
H     -0.280863856121     6.399166893247     1.384090375014
H     -1.364849506965     5.611712171324     0.182473923775
H     -1.898740158078     5.801018913944     1.910858542129
Pd     0.334982864132     0.903488247403    -0.173648688867
C      0.095547724162    -1.871151004738     1.291794448832
O     -0.501003415458    -0.908368274372     0.695808627088
O      1.381244711504    -2.092719643595     1.222234018618
C     -0.707771061265    -2.864438055393     2.163212829965
H     -0.005868126269    -3.218445265156     2.931387374252
C     -1.179124037606    -4.050685060199     1.354950853506
H     -1.671092562139    -4.782221878772     2.029050909734
H     -1.922284732395    -3.707527961535     0.605809933096
H     -0.324442523271    -4.541400886276     0.845138737489
N     -1.904387373492    -2.275326042826     2.772435167442
C     -1.830286084184    -1.208123322274     3.454583407945
O     -0.633464912859    -0.538411686020     3.710177176603
C     -3.075197099350    -0.683429463519     4.035734428736
H     -3.756512872153    -0.446400451222     3.200929894699
H     -3.507734500999    -1.483967225870     4.659529011179
H     -2.867047312621     0.212443921742     4.644582058942
N      1.132486140522     0.008518278087    -1.867616546199
C      0.717534413826     0.335552852918    -3.130039578407
C      1.430762399786    -0.100897328031    -4.226274078008
C      2.564354312920    -0.865428433941    -4.065718286945
C      2.959682418408    -1.187229842838    -2.794541179611
C      2.206996429250    -0.733376470380    -1.686601614142
H     -0.172148533023     0.938740344336    -3.267278305698
H      1.097821512903     0.166588034305    -5.215541051202
H      3.131657858499    -1.206542872426    -4.927600743076
H      3.832697296523    -1.778469444760    -2.603929981296
O      2.665347769680    -1.084177386237    -0.525253610910
H      1.999194692553    -1.509686791763     0.404230211447

