# STO-3G

title

0 1
C      2.269519901253     0.415554116017     3.131194478356
C      2.207826780245     1.812542012026     3.336795938599
C      2.871465935081     2.396600493606     4.437015174972
C      3.603653117107     1.594463309510     5.333131710008
C      3.674575742882     0.203649683262     5.121529094994
C      3.015598598939    -0.384751890385     4.021954989681
H     -2.536716754358    -2.040171087448     1.613132133700
H      1.645355555978     2.451998958504     2.658326221990
H      2.811729306090     3.471858109972     4.593107247072
H      4.111304181958     2.044658310126     6.183023384880
H      4.243502086236    -0.424508473606     5.804280227705
H      3.099472073434    -1.457563697692     3.858232034578
C     -0.232505639794    -1.347311679958     2.760011202372
H      0.120287479989    -1.486714689279     3.776656540923
H     -0.314123575525    -2.242238150428     2.149223907844
C     -0.776257012383    -0.132878888461     2.330433481415
H     -1.209849560273    -0.065852877499     1.342688391137
C     -1.015574757113     1.028022574697     3.204620790267
O     -0.790514971045     0.944736577189     4.440397073512
O     -1.440285483957     2.232147558213     2.618235422140
C     -1.631371248867     3.332291273903     3.519413090130
H     -1.964983537833     4.224915234247     2.947422184319
H     -2.413170881610     3.092751129871     4.275926013270
H     -0.680792704003     3.587134311374     4.041489346255
Pd     1.373304412992    -0.385645459680     1.537182418698
C      0.173152292179    -2.265078380890    -0.689389489986
O      0.272745013799    -1.081152507262    -0.213755115305
O      0.973324559256    -3.251151760736    -0.381333088274
C     -0.946779575033    -2.607012358030    -1.699384351423
H     -1.150737075744    -3.678311411831    -1.562857834278
C     -0.494203515520    -2.378067728361    -3.122570848839
H     -1.287720656823    -2.718741889149    -3.819616969603
H     -0.328891240265    -1.292392616204    -3.281046606784
H      0.440173594616    -2.939044127949    -3.331079600393
N     -2.165910044605    -1.811807923513    -1.518620665017
C     -2.736001372539    -1.741498344695    -0.387187251643
O     -2.284419208107    -2.415553361197     0.746862867510
C     -3.960462198323    -0.932488897887    -0.291100698902
H     -3.692929205126     0.106214790857    -0.548712349530
H     -4.674665523763    -1.332328644203    -1.030869278415
H     -4.382234630878    -0.994319163696     0.726278347941
N      3.260544825179    -0.485920700927     0.682623444167
C      4.046652204950     0.622351016144     0.519975148540
C      5.374442239938     0.483019370692     0.175978298719
C      5.924368305700    -0.766243800934    -0.003770796316
C      5.120238000386    -1.862840990178     0.159276616340
C      3.759702028933    -1.693518148091     0.506287267758
H      3.624105500591     1.610058919709     0.662023514934
H      5.985554521934     1.362222173064     0.055424386425
H      6.972105752448    -0.879579395240    -0.269150959058
H      5.489260793763    -2.861108890386     0.035448250922
O      3.083058536012    -2.790508860161     0.646861066084
H      1.960555172470    -2.999264914192     0.203731406981

