# STO-3G

title

0 1
C     -1.369306193926    -2.169296016092    -0.332367532091
C     -0.879485257506    -3.495408340346    -0.424815297794
C     -0.623481697005    -4.236862680160     0.739305435875
C     -0.823383225698    -3.654858914122     2.015923021569
C     -1.315278477840    -2.346762852446     2.122539993793
C     -1.604621834058    -1.602630054685     0.949676538340
H     -1.627286802451    -1.609784796436    -1.229580100843
H     -0.736284559639    -3.941495592531    -1.406317466141
H     -0.278899710914    -5.266278843720     0.666747309393
H     -0.611688084950    -4.230491641064     2.914104699515
H     -1.491580253175    -1.904760426839     3.100071926440
H     -2.130901855724    -0.655909449866     1.021327768974
C      1.972494265017     0.595024563081    -1.396683557931
H      2.929783887038     0.402546642705    -0.920869842054
H      1.667392659412     1.632367123381    -1.456558543272
C      1.310743602872    -0.372040013506    -2.172628821500
H      0.413015247347    -0.107010239465    -2.710797925749
C      1.860289377233    -1.695757687063    -2.513372502567
O      3.029111826630    -2.005113095878    -2.156910967674
O      1.055714360625    -2.600181980546    -3.227144697898
C      1.659801057168    -3.859468735712    -3.553419024022
H      0.932342579939    -4.479121074385    -4.120955047818
H      2.560856732214    -3.711712615397    -4.191258230337
H      1.945299223534    -4.413404253358    -2.631019887371
Pd     0.413471620938    -0.285395283389    -0.043206045889
C      0.616996792033     3.035514642949     0.180915458491
O      0.792242891287     3.861106605509    -0.733827275193
O      1.627719322892     2.689554736085     1.012437673605
C     -0.797617099519     2.362276833019     0.306931465558
H     -1.469619175893     3.174493234267     0.002742355539
C     -1.202719761088     1.951316667821     1.707168570395
H     -2.290476548445     1.733260099620     1.724373992217
H     -0.665707526106     1.040229314556     2.027917798759
H     -0.994053220368     2.771839164474     2.425106321000
N     -0.897095679565     1.187433579415    -0.583420082974
C     -1.645312646006     1.077478084244    -1.700310363403
O     -1.629434036663     0.053462071792    -2.454831483277
C     -2.544372830802     2.190372163446    -2.086948423749
H     -3.074614528737     1.904425962692    -3.013999442889
H     -3.277886756381     2.346855418132    -1.279360952809
H     -1.932937128453     3.089658307390    -2.282767830356
N      1.812064239508    -1.460680447583     0.893977041339
C      2.315870947831    -2.716785794965     0.703957049736
C      3.226249243503    -3.234911188605     1.604073969280
C      3.642153407066    -2.496989576427     2.691729118433
C      3.120027363545    -1.242644419431     2.873296678174
C      2.183416603349    -0.739738038115     1.942886507097
H      1.998032211909    -3.309561142200    -0.143518545891
H      3.622429842949    -4.223015224812     1.441023816166
H      4.364048535242    -2.904371902689     3.394343354583
H      3.391489238837    -0.625038039877     3.704590749103
O      1.681656941889     0.426936163940     2.161965464471
H      1.584321615935     1.805187015949     1.523382986532

