# STO-3G

title

0 1
C     -0.440203535780    -0.280429793355     3.098332904303
C      0.416533667330    -1.411945319294     3.007098496781
C      1.768365895811    -1.304365318628     3.407349197608
C      2.256944832847    -0.087295699353     3.902055512653
C      1.403392819224     1.034836522951     4.018580174399
C      0.064016742007     0.939150663623     3.627732877060
H     -1.504708902509    -0.394528888260     2.917182377669
H      0.025505427333    -2.375534733721     2.694577968613
H      2.425766090378    -2.164533424054     3.320234715096
H      3.300759757664    -0.000035325806     4.191891495485
H      1.793738316099     1.973674945178     4.401881199714
H     -0.596024597535     1.796937287348     3.735473955649
C     -1.073797037876     2.760153115328     0.662162512000
H     -1.242740972776     3.363910320053    -0.232578952532
H     -0.839404390142     3.436878137412     1.492241016355
C     -2.312181285856     1.918703313928     0.994202785631
H     -2.061399817892     1.156748170683     1.725321758820
C     -3.548136419498     2.631318655615     1.448067171578
O     -3.617264377459     3.885521263657     1.312221977700
O     -4.408962792701     1.960228377227     2.338019865686
C     -5.546003248521     2.707545622645     2.791325650391
H     -6.159528148600     2.071060751701     3.464477025062
H     -5.226419375535     3.609355810448     3.361080486510
H     -6.181568892102     3.018281147666     1.931328618176
Pd     0.038866080934    -0.359380349016     0.658895452174
C      2.193533671109     1.186535794443    -0.385170478658
O      1.786511541457     0.613207745333     0.775070259008
O      3.099621890828     2.040672122692    -0.436016910459
C      1.462774097301     0.652857152206    -1.662644020854
H      2.277900159057     0.383696956239    -2.349999816721
C      0.593049847315     1.692609940355    -2.343053459055
H      0.446166627705     1.408061843802    -3.404931225916
H     -0.413273556797     1.721701359293    -1.877280345120
H      1.068347712368     2.695280964783    -2.309044564333
N      0.611721095511    -0.482652506264    -1.277576847255
C      0.540998639041    -1.695636257246    -1.858729379959
O      0.018105922979    -2.718987769643    -1.322825298653
C      1.073096693256    -1.841155121432    -3.237104688961
H      0.813026050147    -2.851374474126    -3.602506129216
H      0.589346150232    -1.083978329776    -3.875338352956
H      2.169956155594    -1.734725774931    -3.215896565327
N     -1.939444794111    -1.004215302581     0.286164613931
C     -2.161418844677    -2.357573513118     0.245910894284
C     -3.268474086244    -2.863546958571    -0.407251681149
C     -4.140150107147    -2.019910184918    -1.055582855372
C     -3.904125613944    -0.673755724955    -0.992446870761
C     -2.786628254135    -0.195374376064    -0.270034849436
H     -1.471426250535    -3.032502367858     0.738227065526
H     -3.419810943877    -3.929085744790    -0.440003074689
H     -4.999429580127    -2.411288164714    -1.592805778378
H     -4.553397750146     0.044096531114    -1.449135066556
O     -2.718023049000     1.147211808803    -0.241117638196
H     -0.206352154298     2.116194752104     0.516318919252

