# STO-3G

title

0 1
C     -1.009513043431    -2.193522273580    -0.459746192107
C     -0.289496153631    -3.406070085359    -0.263625750047
C     -0.461755646485    -4.152388556662     0.906169794060
C     -1.358818729877    -3.706361716650     1.912110990114
C     -2.088508592123    -2.524932896245     1.732616207109
C     -1.925719280395    -1.764163595709     0.542491989515
H     -0.957265259162    -1.655201989197    -1.405185669908
H      0.386228472315    -3.757368885758    -1.040636378100
H      0.085215581757    -5.082543346593     1.042689723082
H     -1.494217187530    -4.300068393391     2.813334703694
H     -2.803228157635    -2.200284804084     2.484310082406
H     -2.579399833306    -0.921553667192     0.340986194558
C      2.591304639260     0.566890353680    -1.306324301766
H      3.649728266266     0.720487441661    -1.532415627750
H      1.986799320509     1.187960215235    -1.975101225014
C      2.177123111637    -0.901751560201    -1.492410814498
H      1.118020925555    -1.011682653703    -1.296478609728
C      2.477229150910    -1.573594718531    -2.793829718909
O      3.277186819267    -1.021830961947    -3.603520334247
O      1.659941283771    -2.645431663112    -3.206938548623
C      1.943627671248    -3.186192287807    -4.503759612805
H      1.248737281062    -4.027929459233    -4.709672363379
H      1.798971935820    -2.413897343981    -5.292592775187
H      2.986517302673    -3.573363008433    -4.548833069514
Pd     0.034903422815    -0.218678339996     0.611791221390
C      0.082707224596     2.513660779899     1.476937597004
O      0.873921862814     1.406537516017     1.480811188050
O      0.390969314843     3.566067300928     2.064201621885
C     -1.258593217410     2.339801960171     0.685565202847
H     -1.460302290370     3.298491721045     0.189660778646
C     -2.411666744461     2.031904947077     1.614676731306
H     -3.345264812167     1.923760984174     1.024740945275
H     -2.217564403465     1.081601043010     2.153024548699
H     -2.540090820940     2.852482339474     2.351706471702
N     -1.111064246846     1.201583668745    -0.230165134366
C     -1.149429845640     1.196493077004    -1.573475280502
O     -0.714929151144     0.231651306331    -2.286535582202
C     -1.770830533817     2.347709189134    -2.268231335078
H     -1.824521812163     2.114096760606    -3.347834766158
H     -2.790107768851     2.482462823475    -1.868417340468
H     -1.145315466108     3.243518767504    -2.118337244170
N      1.538229282857    -1.384281877198     1.440472737931
C      1.376002889564    -1.551523569523     2.789457417267
C      2.349956459682    -2.184051584778     3.533721541163
C      3.492709773184    -2.651909274647     2.925929889996
C      3.632513932571    -2.464250438724     1.577726716344
C      2.613430614726    -1.806964691247     0.849359718085
H      0.474747698519    -1.190634704200     3.270865736883
H      2.210552717951    -2.312657753714     4.593759829608
H      4.264630072119    -3.155615317721     3.501122115780
H      4.493370315270    -2.805338218228     1.039130470142
O      2.911926626024    -1.714225428754    -0.444616293853
H      2.394133222796     0.891263347550    -0.281704947043

