# STO-3G

title

0 1
C      1.514217748221     3.172456180036    -0.872133454526
C      2.845247676040     3.255128525793    -1.357635163735
C      3.435349614750     4.497007799616    -1.673150771678
C      2.705032733675     5.691577756059    -1.521178109940
C      1.380989089325     5.628458818865    -1.045423131864
C      0.797597031097     4.386707440313    -0.717955032376
H     -0.912320036339    -3.155512131125     3.400495292439
H      3.435899294564     2.350371212804    -1.499353611227
H      4.461052308701     4.527153559942    -2.038776977265
H      3.157968813712     6.649721099300    -1.767452431072
H      0.801495483963     6.542534170793    -0.924097216696
H     -0.225730032118     4.372558294412    -0.346405204134
C      1.045677961459     0.777811265535     2.304335768562
H      0.889468005033     0.896983648748     3.382733875233
H      2.118206471190     0.710952565954     2.097882325658
C      0.400982294250     1.861348383352     1.453389044471
H      0.974213388739     2.758410714021     1.682332873518
C     -1.030682386116     2.144306979523     1.645515625798
O     -1.676986785723     2.372883994695     0.587791261337
O     -1.413263034350     2.761043903995     2.848297370624
C     -2.818950739082     3.008597515998     2.985109112116
H     -3.018016447020     3.455744928562     3.982022689476
H     -3.176549751820     3.719521767628     2.206551310176
H     -3.394323284326     2.056925772871     2.910948098788
Pd     0.648995702446     1.394530868758    -0.546783394705
C     -0.172984429021    -1.088491257099     1.067520997480
O      0.521858393448    -0.629810063941     2.118736005470
O     -0.256013250585    -0.548212288812    -0.059745561805
C     -0.831789089827    -2.445341794065     1.402882731554
H     -0.060491219349    -3.220371039344     1.299243478591
C     -1.986007678038    -2.780931699325     0.481122264068
H     -2.432020323863    -3.749999114366     0.785263154391
H     -2.761044977557    -1.989991493961     0.553168648865
H     -1.632157141820    -2.854177141391    -0.567663128658
N     -1.306423786617    -2.457096697155     2.785670753072
C     -2.011555507032    -1.413446212295     3.303036188298
O     -2.335913609481    -0.395854762672     2.648518324323
C     -2.375548525346    -1.527017254564     4.729464550194
H     -1.438580205744    -1.602066407423     5.306292252419
H     -2.938816850328    -0.623980722527     5.019229934880
H     -2.990749925857    -2.434129199370     4.854640548593
N      1.102957276676     0.646530720665    -2.534591069803
C      0.468619544453     0.992460220862    -3.696989571344
C      0.893381829677     0.450038541313    -4.895718524515
C      1.948046205357    -0.440837254963    -4.928184980217
C      2.563840012392    -0.763453653353    -3.744933983975
C      2.092095086934    -0.180704568252    -2.554773103304
H     -0.361491828084     1.689266624859    -3.673968969578
H      0.390105689488     0.723595064403    -5.808871701624
H      2.283090406919    -0.873530419998    -5.867246770372
H      3.388258780843    -1.446390085900    -3.693403175144
O      2.755960542280    -0.529760770446    -1.439049169301
H      2.365320092767    -0.007056821904    -0.672976222441

