# STO-3G

title

0 1
C      1.846640818698     1.879403426153     0.899094708950
C      0.559652020483     2.266907288989     1.382666688256
C      0.122624581541     1.812612774140     2.661273198422
C      0.955046063554     1.004256432852     3.439345857085
C      2.247008475415     0.645197011844     2.973211091768
C      2.690298827011     1.081180395797     1.724379886498
H      2.237558928141     2.305754619819    -0.020579440529
H     -0.018420784066     3.021272109965     0.859791024917
H     -0.858846229581     2.105950905110     3.023112502980
H      0.613752812129     0.645970806680     4.406936522605
H      2.885017396541     0.014361386035     3.585276475027
H      3.678245147898     0.805323082870     1.368939790005
C     -0.074004468399     0.273841272747    -2.650822283098
H     -0.659629699548     0.218519158489    -3.578170875995
H      0.962530292733    -0.001437107784    -2.844741472790
C     -0.122445249856     1.602141452231    -1.855169125086
H      0.776749506843     2.206115877576    -1.948188028623
C     -1.325366051032     2.458552523789    -1.901758415667
O     -2.266684434050     2.174244516768    -2.690413160751
O     -1.257365619895     3.715772494842    -1.278487951346
C     -2.439790040805     4.522914343318    -1.373271668794
H     -2.279071621989     5.479863356394    -0.831407909797
H     -2.673416420674     4.761511741488    -2.435999252378
H     -3.311089709170     4.003567068488    -0.911999770402
Pd     0.274574999590     0.473437888500    -0.145134020179
C      0.783926737437    -2.392177871243    -0.106750572299
O      0.852852060248    -1.384754053117     0.739888323441
O      1.335387602865    -3.514748858828     0.023510623728
C     -0.107616112475    -2.189450409856    -1.421370975688
H     -0.989946310254    -2.824508889897    -1.246407820197
C      0.584002137193    -2.691221349151    -2.676445244761
H     -0.031386689636    -2.479614450857    -3.572131866831
H      1.569758374082    -2.201584734082    -2.788101677045
H      0.745189336308    -3.787100812197    -2.604926569307
N     -0.604796369859    -0.762262791565    -1.604791640924
C     -2.049224224988    -0.680947185915    -1.470145682683
O     -2.597842658321    -0.092199399069    -0.540119021876
C     -2.883775583935    -1.305886770669    -2.523685083965
H     -3.510625887457    -0.504401903264    -2.953543763991
H     -2.242483511775    -1.737772428153    -3.305714097611
H     -3.517123109886    -2.076557384268    -2.052101351040
N      3.252609854796    -0.296584399757    -1.863050431866
C      3.905069634806    -1.272475212247    -1.153498392159
C      5.118459666717    -0.989906381527    -0.549470139249
C      5.677008896631     0.268033456494    -0.649819953239
C      4.991150021508     1.226407513064    -1.352033438015
C      3.765224587658     0.873305298875    -1.949980307232
H      3.481760533274    -2.266225710830    -1.079429613129
H      5.623421302165    -1.765125970487     0.004206579746
H      6.629018217516     0.494940532005    -0.177217147808
H      5.358484622024     2.226247393071    -1.469586852831
O      3.163000462266     1.895916040346    -2.614332579067
H      2.330522942734     1.589509630839    -3.027358423783

