# STO-3G

title

0 1
C      0.747317208966     3.114956655538    -0.354134220562
C      1.932805393710     3.757359802092    -0.827758031979
C      2.174416844106     3.903612085871    -2.196872198656
C      1.250565621561     3.393929931593    -3.147036467403
C      0.098061371274     2.733789052198    -2.712655959569
C     -0.163172471976     2.582816306108    -1.322558831788
H     -1.922154282462    -1.461484546190     2.420429391401
H      2.632597187977     4.167913617162    -0.102642619427
H      3.067287910192     4.423845567466    -2.535961491719
H      1.438004066104     3.520844362249    -4.210766259172
H     -0.612172535745     2.333539224150    -3.432142621719
H     -1.129374588125     2.193335271423    -1.007499509574
C      0.232268165305     1.579716174193     1.427558892397
H     -0.796538238066     1.196758974598     1.402518398783
H      0.764011135258     1.198886067993     2.298499518153
C      0.392784242584     3.095581232499     1.164648787056
H      1.296385155250     3.426776367663     1.677754377033
C     -0.716818259617     4.011180656181     1.594163641705
O     -0.432519058517     5.153675950814     2.042797020922
O     -2.039323210276     3.527367364628     1.609117054244
C     -3.037362515690     4.450587599413     2.066230632960
H     -4.036076892581     3.964844457485     2.026458723634
H     -2.840860973008     4.756953934062     3.118970085161
H     -3.065040855165     5.355732980400     1.417610305854
Pd     1.077260495276     0.790591060000    -0.246838020917
C      0.392413039981    -1.579703500946     1.177086171107
O     -0.551935284943    -1.714526199697     0.303294844581
O      1.489241622097    -0.919015832372     0.968549657020
C      0.092907436395    -2.055495947831     2.616252227673
H      0.915081616464    -1.767838470462     3.274010756489
C     -0.176310907487    -3.538922353202     2.722362405938
H     -0.400549496646    -3.796186368426     3.778107075197
H     -1.055064924740    -3.802225071092     2.097512497259
H      0.709422879357    -4.114036575797     2.383780003678
N     -1.116096337594    -1.330090117243     3.023700417506
C     -1.070742585641    -0.290523710992     3.902825352334
O     -0.045614325068     0.102932997333     4.505308281391
C     -2.359582827096     0.399371345616     4.123574043806
H     -2.206271833742     1.209383907240     4.858154016179
H     -2.699461566997     0.811236221504     3.158772116854
H     -3.081478817265    -0.341486293486     4.508945938749
N      1.745185013805    -0.082061899724    -2.099806089504
C      2.847211793487     0.404580477838    -2.749185828109
C      3.152095261149    -0.037745973650    -4.020202522410
C      2.356480215093    -0.973616290962    -4.643918775730
C      1.264761528688    -1.452074756137    -3.968612832954
C      0.989648075877    -0.980438442989    -2.666082354702
H      3.473393011220     1.145793506435    -2.266488838016
H      4.018857846182     0.355462393226    -4.525390057520
H      2.590087056057    -1.325113103838    -5.645413435357
H      0.607156171893    -2.183661520684    -4.394378910185
O     -0.086047871817    -1.513553460722    -2.123457458648
H     -0.268289408577    -1.480230391043    -1.077247028774

