# STO-3G

title

0 1
C      0.388568198337     3.169955556967    -0.471851895159
C      1.661489293760     3.807662287311    -0.596314007961
C      2.310559542401     3.883793490456    -1.831649169603
C      1.724631759422     3.302753845962    -2.988009371798
C      0.496458125838     2.644548601694    -2.889165748173
C     -0.180371399277     2.567297867561    -1.639426572402
H     -1.880894098187    -0.361780585215     3.030910024540
H      2.102601355187     4.273773893511     0.282451328644
H      3.261797247772     4.405070670099    -1.911679976481
H      2.228511598702     3.375946765097    -3.949014142611
H      0.040654436887     2.193041741799    -3.767149909905
H     -1.200350787636     2.187938438265    -1.617062777906
C     -0.690624884866     1.739255574955     1.142828677138
H     -1.672922835526     1.358434666708     0.831125501590
H     -0.448808421393     1.435608542194     2.158412931207
C     -0.420811469394     3.237931145938     0.858774587079
H      0.283732405103     3.589876842044     1.613271702822
C     -1.584318787467     4.187291657947     0.865155605805
O     -1.422912841096     5.357431614356     1.304787672813
O     -2.835025825669     3.747800494835     0.391233359917
C     -3.897469642818     4.709541836555     0.447885337920
H     -4.829657053839     4.252915229094     0.051563607253
H     -4.085953323221     5.028453828660     1.498344112813
H     -3.655538728021     5.602652550740    -0.171983725152
Pd     0.630676840590     0.858147093607    -0.133737177463
C     -0.288724995584    -1.554689571786     1.178104330824
O     -0.961371279008    -1.793172379968     0.111442719843
O      0.742109839129    -0.757712642133     1.229657444696
C     -0.745571155409    -2.084189681710     2.569203601022
H      0.089401375746    -2.636286722188     3.013375833576
C     -1.953052896832    -2.992276445390     2.515700639449
H     -2.221996551294    -3.311166663822     3.543877624633
H     -2.813008491950    -2.443956515644     2.078155188846
H     -1.734462548674    -3.887029753793     1.897292281238
N     -1.090365878722    -0.906301989323     3.374156908978
C     -0.286241525347    -0.166552112715     4.194149658870
O     -0.549248300143     1.019038518678     4.507589090854
C      0.917100103730    -0.817678297942     4.753629973626
H      1.393410381623    -0.113700316153     5.459474216619
H      0.593521323704    -1.725126528307     5.289863749095
H      1.613260983620    -1.047189332905     3.929296874474
N      1.862626361914    -0.097786716531    -1.624629878536
C      3.098287294206     0.401616937707    -1.936092171475
C      3.789136124902    -0.092185050502    -3.023895899800
C      3.245636224519    -1.090472077227    -3.802303094721
C      2.012408257039    -1.580855633990    -3.462032323675
C      1.341170391934    -1.055595625382    -2.336118234298
H      3.528191390678     1.191730856838    -1.331721063252
H      4.758354106266     0.312302800150    -3.265102453849
H      3.782587314067    -1.481007533679    -4.662719484479
H      1.534682708586    -2.359465577762    -4.022859125380
O      0.164476348564    -1.608977079342    -2.113975397344
H     -0.312208368749    -1.544392037806    -1.179168664819

