# STO-3G

title

0 1
C      1.273589618974     3.376348318112    -0.337358958174
C      2.673684148306     3.200232719363    -0.575634313971
C      3.214684815153     3.324095305536    -1.877873987490
C      2.376992461270     3.616842270856    -2.963581638155
C      0.981613354584     3.736128120756    -2.759213219038
C      0.437457675679     3.610662620299    -1.473948381427
H     -1.186243593533    -2.204108002152     1.810326993491
H      3.350406987150     3.093257269498     0.268492108833
H      4.287646050810     3.222334388416    -2.020320374704
H      2.794777415070     3.751059174648    -3.958756139980
H      0.324804373613     3.945510820439    -3.600614452997
H     -0.637023491496     3.726850459512    -1.347703676948
C      1.219189143221     2.154885766423     1.771652344837
H      0.458369309553     1.631296751502     2.353450385884
H      2.185239166637     2.133476140674     2.278711795469
C      0.809322071516     3.516348551310     1.166903747372
H      1.445550069310     4.298270763067     1.589233469433
C     -0.608743152401     3.950770600839     1.386796276399
O     -0.839898333432     5.144061160120     1.719980506239
O     -1.655427304706     3.073678753139     1.043311009761
C     -2.982021447234     3.584981778616     1.235187108581
H     -3.723440900363     2.826293747354     0.907208768337
H     -3.163769769871     3.810089689083     2.310875742463
H     -3.144226349722     4.506691541663     0.631141913276
Pd     1.378981017957     1.083105293603     0.062050111500
C      1.488166999597    -0.916554555373     2.462221984732
O      1.196203912854    -0.685270254408     1.169343811745
O      2.528066761347    -0.546639064914     3.037011645371
C      0.359740560086    -1.696655944747     3.212554403362
H      0.300013194154    -1.251851521387     4.210970559254
C      0.670191419197    -3.171286957632     3.346023018800
H     -0.136615191927    -3.666681247946     3.924993404259
H      0.722535857348    -3.632846016496     2.338688006425
H      1.636640376957    -3.313803367121     3.872420407899
N     -0.933950338223    -1.555417043016     2.548091433403
C     -1.615969146870    -0.381957987151     2.636270579024
O     -1.241199736853     0.608195677752     3.311357033506
C     -2.877970431314    -0.317456261134     1.873085976871
H     -3.348357131934     0.662237911013     2.055758694019
H     -2.631837836049    -0.442764465180     0.804847807465
H     -3.531273055428    -1.135328555007     2.222552539500
N      0.966567700315    -0.134139511896    -1.773985085732
C      1.414317301963     0.210836060738    -3.020957516402
C      0.865115899605    -0.375922634692    -4.143978505502
C     -0.131347096179    -1.319890449024    -4.024577599676
C     -0.546407254113    -1.668234920572    -2.766910365066
C      0.049153130532    -1.050690016954    -1.646393294157
H      2.208991919284     0.934865812962    -3.126804046127
H      1.223930618088    -0.092225529906    -5.119690909674
H     -0.567592243833    -1.785048995187    -4.904626792484
H     -1.302586511179    -2.408867133608    -2.598468599853
O     -0.405593464435    -1.481951311263    -0.477225405886
H      0.204730317608    -1.178536219085     0.343027368975

