# STO-3G

title

0 1
C      0.775108095380     3.161659329289    -0.215784332675
C      1.570137244158     3.757731655175    -1.241682088959
C      1.131856450596     3.782230226194    -2.569015059085
C     -0.095917100077     3.164279301112    -2.926305910173
C     -0.872443746613     2.537968968668    -1.945591765198
C     -0.460700628190     2.544064532217    -0.584907541190
H     -0.790286086248    -2.305658523410     0.889100586300
H      2.503848727901     4.245781670425    -0.966600344495
H      1.728443734972     4.282806450037    -3.328455305345
H     -0.438047988969     3.193709642198    -3.958532375524
H     -1.822150338650     2.077985697339    -2.208583984409
H     -1.155981832196     2.199822492416     0.178567381525
C      0.907972885733     1.979460430637     1.899744554596
H     -0.104489969134     1.761000259635     2.250389629578
H      1.667774978717     1.633029694218     2.601425170018
C      1.136950912531     3.376292326492     1.290540867638
H      2.211783622736     3.568095262719     1.298747060078
C      0.475782220523     4.557297412349     1.945013839411
O      1.099491170348     5.651380759893     2.002508027169
O     -0.765791202026     4.389628786377     2.583545280456
C     -1.320890220720     5.561536081139     3.195585412436
H     -2.299300583301     5.305759109219     3.656444515862
H     -0.649080698480     5.946163051881     3.996064929030
H     -1.491042861656     6.359750952632     2.438000103373
Pd     1.174457575017     0.857875753995     0.225151621322
C      1.063664145450    -0.936679674060     2.720291435591
O      1.566632579821    -0.854259989821     1.463909851563
O      1.680499622293    -0.588654144060     3.742509254367
C     -0.403973597214    -1.482308198527     2.818523342925
H     -0.950638787448    -0.772251356723     3.447829700421
C     -0.458251529808    -2.848449378804     3.465763147285
H     -1.516488506381    -3.165860538041     3.571014061186
H      0.072388245659    -3.583702933244     2.826453938180
H      0.013528612889    -2.818442903487     4.469965594690
N     -1.076574216094    -1.567463596445     1.526035074972
C     -1.816248848110    -0.543035545362     1.034248513381
O     -2.033952012448     0.544488688058     1.626516875598
C     -2.392798101927    -0.762307144047    -0.308871968857
H     -2.993190017716     0.121028912450    -0.588365528131
H     -1.565506392116    -0.915576318918    -1.020580264623
H     -3.032285239974    -1.661255523511    -0.261122729003
N      1.479738659274    -0.370813110729    -1.596872889725
C      1.761810953535     0.217834949463    -2.800707619577
C      1.743644949498    -0.529701910009    -3.961410828229
C      1.455319506081    -1.876346402400    -3.923124049442
C      1.205124109558    -2.449962484577    -2.705211875307
C      1.245628884597    -1.651169426065    -1.543023805020
H      2.011645959376     1.267231641261    -2.841663265259
H      1.962759059387    -0.052532508519    -4.902685813580
H      1.439921499762    -2.470163434245    -4.833322827660
H      0.993566950692    -3.495362058169    -2.597145681210
O      1.016197437014    -2.303228484217    -0.415552819595
H      1.245531578488    -1.721428948693     0.467148596357

