# STO-3G

title

0 1
O     -5.083200560468     3.491985241257    -0.000256983833 0 4 3 1
H     -5.990487870648     3.144769286551    -0.000195425301 0
N     -4.846825134722     1.218321438501    -0.000157112622 5
C     -4.274257120067     2.416443837308    -0.000243658787 5
C     -2.880084991631     2.611622310802    -0.000320868730 5
C     -2.073332016463     1.480175333308    -0.000304363751 5
C     -2.664863175671     0.208057852188    -0.000213277396 5
C     -4.056768464123     0.137762020721    -0.000142408131 5
H     -2.473050936482     3.623791648016    -0.000390197074 5
H     -0.985146758662     1.585575851398    -0.000362191688 5
H     -2.061443375780    -0.701474235147    -0.000197886456 5
H     -4.565082635281    -0.833466314906    -0.000070166233 5

