# STO-3G

title

0 1
O     -5.092859709666     3.494230398106    -0.000251289942 0 4 3 1
H     -6.001411466757     3.150409357843    -0.000190286687 0
N     -4.833475633235     1.219384001976    -0.000159140070 5
C     -4.285605366595     2.425266249508    -0.000241446448 5
C     -2.883076415859     2.607787089481    -0.000318151817 5
C     -2.067453441188     1.482394405571    -0.000305943665 5
C     -2.668380063390     0.216642321223    -0.000218387158 5
C     -4.060452290191     0.130920679679    -0.000146661522 5
H     -0.982218089323     1.589536907043    -0.000363548953 5
H     -4.556963887827    -0.844127344584    -0.000077563298 5
Cl    -2.204696419401     4.206986701924    -0.000424630158 5
Cl    -1.691459416570    -1.227483977769    -0.000199220283 5

