# STO-3G

title

0 1
O     -5.360754880757    -1.938116691561     0.000229937535 0 4 3 1
H     -4.674129589458    -2.625836460551     0.000016183817 0
N     -3.401176545660    -0.772410515437     0.000149615470 5
C     -4.708725040613    -0.761056321917     0.000325099794 5
C     -5.502048584382     0.426901055815     0.000614288195 5
C     -4.847944311875     1.631890505874     0.000709986172 5
C     -3.422448034894     1.672632573648     0.000524285470 5
C     -2.732186799801     0.416334003665     0.000241708091 5
C     -2.674761457450     2.878899312019     0.000605483678 5
C     -1.293758188322     2.849565532607     0.000415881116 5
C     -0.611573126705     1.608099285920     0.000138241635 5
C     -1.311948783940     0.417361728762     0.000052544264 5
H     -6.589805011555     0.344804846161     0.000747391424 5
H     -5.411116784232     2.569454276922     0.000928225341 5
H     -3.210295640862     3.832622014610     0.000820507242 5
H     -0.724042755014     3.781944711207     0.000479242721 5
H      0.481559745479     1.595060539001    -0.000009848103 5
H     -0.802863679957    -0.548477816743    -0.000161073864 5

