# STO-3G

title

0 1
O      1.275478348519    -2.017606490521    -0.005491285721 0 4 3 1
H      1.513532742374    -2.959836498912    -0.007481129604 0
N     -0.724471260105    -3.093320873122    -0.005717787774 5
C     -0.070634246320    -1.977622890625    -0.004177662099 5
C     -0.679303901455    -0.662140342101    -0.001136558028 5
C     -2.100071705621    -0.600320479059     0.000426746406 5
C     -2.846615581323    -1.851707747334    -0.001110701040 5
C     -2.101871577333    -3.069020040629    -0.004236691098 5
C      0.095280507485     0.518606835184     0.000209827405 5
C     -0.525020584321     1.757086440408     0.003080709685 5
C     -1.931950185479     1.832454915596     0.004667095494 5
C     -2.702952247620     0.680109609279     0.003373567421 5
C     -4.258714063470    -1.926559038302     0.000335189956 5
C     -4.913732711343    -3.148837330123    -0.001242821114 5
C     -4.173010541002    -4.347214359030    -0.004361942327 5
C     -2.788895240445    -4.305517285947    -0.005836702783 5
H      1.182759087106     0.433803598546    -0.001061425423 5
H      0.072199253008     2.672004363350     0.004106069436 5
H     -2.422606720814     2.809246307016     0.006923139396 5
H     -3.790078363373     0.768900087779     0.004629063178 5
H     -4.850162645680    -1.009279983657     0.002774485108 5
H     -6.005959388138    -3.180707975132    -0.000038189897 5
H     -4.691516924576    -5.309429975165    -0.005592191442 5
H     -2.187160320079    -5.216440597497    -0.008231265137 5

