# STO-3G

title

0 1
O     -5.063085406423     3.461976299900    -0.000246291939 0 4 3 1
H     -5.976071716750     3.127164297843    -0.000185224974 0
N     -4.835833641068     1.192267161214    -0.000157440454 5
C     -4.260925375690     2.393644780770    -0.000239819893 5
C     -2.863201693079     2.592175239828    -0.000320449644 5
C     -2.052772512492     1.470373197788    -0.000315278005 5
C     -2.665410120710     0.209353848789    -0.000230171778 5
C     -4.057029147686     0.111570066748    -0.000152253434 5
H     -2.458312478689     3.604681766180    -0.000384928494 5
H     -0.964581173718     1.538363155222    -0.000375668401 5
H     -4.535629900798    -0.870932241740    -0.000085377421 5
N     -1.846162021406    -1.005674142922    -0.000227609564 5
O     -2.428240685444    -2.079438882827    -0.000156271676 5
O     -0.632673216043    -0.865272966798    -0.000299404321 5

