# STO-3G

title

0 1
O     -4.988204930485     3.490777064340    -0.000500640922 0 4 3 1
H     -5.907983550222     3.175906524782    -0.000466752371 0
N     -4.829995873673     1.214054224344    -0.000690601359 5
C     -4.216552314739     2.394924292861    -0.000623645960 5
C     -2.815587523880     2.545250829416    -0.000613907908 5
C     -2.045289982049     1.393382284332    -0.000606521697 5
C     -2.678646055578     0.134821711961    -0.000569817513 5
C     -4.079608770914     0.112298628523    -0.000642865890 5
H     -2.376731991601     3.543768957221    -0.000559017573 5
H     -0.955741281382     1.450319559431    -0.000545949247 5
H     -4.598176465997    -0.851648732451    -0.000623297292 5
C     -1.943390672758    -1.156329941953    -0.000108683788 5
O     -2.466984727471    -2.247145960418     0.000749059625 5
O     -0.605196224696    -0.982887709198    -0.000532448639 5
C      0.183058592156    -2.171762540406     0.000320648372 5
H     -0.026412034647    -2.781700877135    -0.891640644751 5
H      1.230372079206    -1.845136530390     0.000571220209 5
H     -0.027118881274    -2.780940465263     0.892601216712 5

