# STO-3G

title

0 1
O     -5.087585294004     3.480306619418     0.204766455508 0 4 3 1
H     -5.995079805153     3.136189832264     0.163686594831 0
N     -4.856053497378     1.220354283315    -0.045038811502 5
C     -4.281037058644     2.408205859675     0.088542581453 5
C     -2.887509379843     2.603248194995     0.114697035680 5
C     -2.054980455335     1.492106904098    -0.005678045650 5
C     -2.666986476057     0.229061380952    -0.147741034739 5
C     -4.055345520449     0.152404878488    -0.160818173259 5
H     -2.489654461540     3.613466948351     0.227847552061 5
H     -2.064864524121    -0.677268457202    -0.246345837517 5
H     -4.554970635223    -0.817226525279    -0.270051992724 5
C     -0.554082332677     1.626032870330     0.014674616777 5
H     -0.111248595601     1.231916087660    -0.914978867269 5
H     -0.239807055513     2.673724792824     0.125632550350 5
H     -0.119014678466     1.047958070098     0.846759776006 5

