# STO-3G

title

0 1
O     -5.086609997695     3.498085709465     0.024866139550 0 4 3 1
H     -5.986032218284     3.155828111702     0.156244989715 0
N     -4.834273074900     1.228727521447     0.176582832543 5
C     -4.277656066731     2.420488432304     0.017105237011 5
C     -2.893337618285     2.604066184897    -0.157861600750 5
C     -2.090309340393     1.472157472479    -0.160628222747 5
C     -2.655305796738     0.192094950052     0.006849601561 5
C     -4.042885521471     0.148865770452     0.171004292871 5
H     -2.488337185985     3.609158781737    -0.284927133090 5
H     -1.009176175036     1.577085229209    -0.294235902681 5
H     -4.545730014655    -0.816845327491     0.306175044137 5
C     -1.812075728262    -1.057348954863     0.008676848862 5
H     -2.430137965526    -1.956337942631     0.152422600858 5
H     -1.263727012320    -1.177827033299    -0.940925874348 5
H     -1.059594203723    -1.037461825466     0.815092876501 5

