# STO-3G

title

0 1
O     -5.090572081622     3.472676317043     0.000111744489 0 4 3 1
H     -5.993534281748     3.114503658225     0.000679785120 0
N     -4.831883001623     1.203830023579     0.000367759397 5
C     -4.270227226469     2.404550879129    -0.000171689430 5
C     -2.878839172699     2.614656813220    -0.001024525322 5
C     -2.070689317048     1.485395291160    -0.001312527161 5
C     -2.654012654466     0.210416680334    -0.000753441317 5
C     -4.049712817907     0.109964496799     0.000094981691 5
H     -2.478291610500     3.629104031971    -0.001424151798 5
H     -0.982570769863     1.592027339061    -0.001977325320 5
H     -2.035653988876    -0.689075638797    -0.000986527240 5
C     -4.758110564840    -1.219453269708     0.000756028555 5
H     -5.409823447068    -1.303914822908     0.885581619369 5
H     -5.411079743811    -1.304136518123    -0.883099558901 5
H     -4.052147781458    -2.061840800983     0.000378267865 5

