# STO-3G

title

0 1
C      1.285702862345     2.721745784808    -1.488264451359
C      2.536428676818     3.334887417161    -1.720580743302
C      2.675782269175     4.286923975835    -2.753976455287
C      1.572318198236     4.631238294521    -3.556913065096
C      0.326785000855     4.014143652092    -3.327868717461
C      0.181836764108     3.059267450612    -2.300310200439
H     -0.109110252631    -0.653809274398     0.929033784865
H      3.405084031514     3.081991722510    -1.115346431765
H      3.642796767945     4.755060294839    -2.926297564739
H      1.680307995163     5.365607758640    -4.351524133883
H     -0.530969164168     4.265645499096    -3.948481622500
H     -0.781915441663     2.575673231576    -2.151676720736
C      1.546420341511     2.837256517330     1.554950098706
H      1.889282653269     2.264102717187     2.412701177351
H      2.280182641910     3.439341942373     1.030603076088
C      0.190261891219     2.986069409721     1.261920787457
H     -0.122320879089     3.643598465149     0.464343914500
C     -0.905023660217     2.553361487505     2.149184750697
O     -2.087922746791     2.643735291468     1.726675204792
O     -0.627527900350     2.275249782193     3.497902994884
C     -1.763448298137     2.124328417024     4.361185901909
H     -1.413495965953     1.885434736203     5.388111942353
H     -2.356489851124     3.065075027692     4.402268792693
H     -2.417864739436     1.290862628083     4.023581133113
Pd     1.118030913793     1.337208393562    -0.052945582543
C      0.964503913196    -0.334257795437     2.786788629251
O      0.952729343082    -0.252669307235     1.432021552993
O      1.859136816214     0.177803410209     3.487021766520
C     -0.237214653888    -1.122477979819     3.429766161211
H     -0.226422961467    -0.815377854220     4.480495289836
C      0.002718868131    -2.619483435903     3.381030073337
H     -0.799219624022    -3.143163476224     3.941953065196
H     -0.017348902059    -2.959238939356     2.325194745883
H      0.984466060793    -2.869010108443     3.834154157812
N     -1.605235220165    -0.890823332356     2.930896299297
C     -1.989996118287    -0.764129272624     1.716520671832
O     -1.196015904170    -0.762424771903     0.598731328664
C     -3.427786756460    -0.607932528408     1.483989674692
H     -3.936694040313    -1.478604664154     1.930696497251
H     -3.744285975225     0.322685997495     1.985027801408
H     -3.628620256881    -0.549113786372     0.399821384017
N      1.157495328366    -0.064278056252    -1.629352284923
C      2.391523039465    -0.291115752641    -2.177413686712
C      2.501323113472    -0.885143360870    -3.417421035773
C      1.374324490412    -1.262959961316    -4.112544544431
C      0.151699961921    -1.047973172459    -3.534397465425
C      0.078424810073    -0.448689529955    -2.257586353264
H      3.282531236851     0.015680514528    -1.642297651846
H      3.477033253234    -1.047826996441    -3.844413272562
H      1.453353875923    -1.727335801284    -5.091848853920
H     -0.762710837869    -1.330983337899    -4.015499705349
O     -1.145153046968    -0.314847224902    -1.793859868905
H     -1.285896887416    -0.391018289784    -0.744313832739

