# STO-3G

title

0 1
C      0.323886454946     3.039318888758    -0.104697604307
C      1.629590125505     3.529030377711    -0.329618733741
C      1.837885890516     4.904150265051    -0.563507500909
C      0.747562396177     5.795723904788    -0.578081878992
C     -0.553410441490     5.306815738017    -0.354287398912
C     -0.768814336726     3.932251061359    -0.116136810966
H      0.763381291157    -1.316862183242    -0.465910096856
H      2.483975554502     2.853594331654    -0.318474200791
H      2.848586839190     5.271923118484    -0.730013942554
H      0.910170057277     6.855713272371    -0.758202530626
H     -1.401286769179     5.988839830116    -0.358825348155
H     -1.782896709061     3.577403781760     0.056934132084
C     -1.014760550197     1.259213801705     2.128480620696
H     -1.631380105567     2.151343373228     2.119228613723
H     -1.532251798113     0.305211976804     2.132348841364
C      0.345197926820     1.303667998433     2.436485041493
H      0.876994645708     0.377938895055     2.606868415256
C      1.064485775646     2.521338124269     2.851902056270
O      2.311429293953     2.464884242193     3.007681253989
O      0.357877055168     3.728363978313     2.996780945784
C      1.153340404238     4.890945631758     3.265528439199
H      0.490808347237     5.778842899770     3.348590850132
H      1.710192126281     4.778196314919     4.223355797806
H      1.873805561026     5.075685909397     2.436709081692
Pd     0.029150978161     1.078444108873     0.142972003042
C     -0.676323503099    -2.911688867005     3.038976250343
O      0.043959749279    -1.766852796029     2.831254273622
O     -0.804961303656    -3.414089632014     4.162785466247
C     -1.335754043440    -3.568400845204     1.772122631831
H     -2.111892502989    -4.219147923071     2.185489856098
C     -0.344424967281    -4.443433550515     1.025238382225
H     -0.871467923598    -4.992997197910     0.217371831079
H      0.448943364048    -3.817140925145     0.565076696242
H      0.118979866056    -5.179177740976     1.715332750251
N     -1.987000433605    -2.696998486345     0.781424714659
C     -1.501262339168    -1.666744582750     0.210567597047
O     -0.262386868120    -1.083334871597     0.449778007306
C     -2.318567765068    -1.006348349198    -0.814886115363
H     -3.249504161834    -1.586403930143    -0.962770204706
H     -2.557221510516     0.012100361248    -0.476669848194
H     -1.737473881169    -0.991800047542    -1.754398323613
N      0.596776049213     0.736807777805    -1.883310592882
C      0.439329636788     1.685131990774    -2.863134484606
C      1.022250277511     1.512434339472    -4.101627662350
C      1.768901973131     0.388774914703    -4.374363578813
C      1.895941163658    -0.556975523137    -3.394836042637
C      1.275765081241    -0.355260118310    -2.142333173986
H     -0.152946276862     2.572076044502    -2.676769400275
H      0.895577667787     2.269766617633    -4.857789030795
H      2.235268934116     0.250538160097    -5.346188425058
H      2.447094480055    -1.464198190542    -3.541885293881
O      1.433163839807    -1.345522072393    -1.292819687961
H      0.049760330009    -1.483679841870     1.843005103513

