# STO-3G

title

0 1
C      1.252297901985     2.953455638225    -0.352363323375
C      2.573307071669     3.140658126429    -0.812892757294
C      3.012901250659     4.425669947236    -1.194669411887
C      2.137948122943     5.526872902247    -1.123554029341
C      0.819279660890     5.339112281724    -0.667516863350
C      0.372824397813     4.056498500782    -0.283735800077
H      0.492221898878    -1.371632627840    -0.583374382401
H      3.261804424380     2.300053390195    -0.879825411793
H      4.035221743604     4.561597623501    -1.541759464156
H      2.481296024952     6.517359411319    -1.412194996839
H      0.139456473681     6.185938774893    -0.601387147957
H     -0.650844771341     3.935590982299     0.065806550601
C      1.763918542088     1.160041882377     2.010992520494
H      2.512307492882     1.940869748239     1.933819046093
H      2.121877959927     0.134829591255     2.025328225386
C      0.442895031992     1.437330744660     2.365696112553
H     -0.218622423732     0.610491998416     2.578125558756
C     -0.067119527998     2.757843089649     2.772164647802
O      0.716681356208     3.737670059146     2.858289984855
O     -1.457734467015     2.922080222177     2.878950504264
C     -1.904416919694     4.230108668507     3.265141003717
H     -3.014313772974     4.238784403707     3.327553874983
H     -1.500157556544     4.506881923877     4.265767588286
H     -1.591104082635     4.994991977504     2.518306445107
Pd     0.595022386892     1.118383544858     0.085229959606
C      0.200978068649    -2.821794969645     3.156140589029
O      1.009917051744    -1.827562100582     2.674907106119
O      0.426123577018    -3.388442856515     4.233038788694
C     -1.035914535204    -3.220789601414     2.269665738317
H     -1.704350434195    -3.733742652068     2.967381337409
C     -0.643362895164    -4.212721070463     1.188702286658
H     -1.555356283805    -4.571197060778     0.667014186582
H      0.019585542018    -3.725222715920     0.442967559426
H     -0.120098662866    -5.084173384918     1.634706694927
N     -1.820682059213    -2.154181385618     1.627670760754
C     -1.388060630333    -1.199789930257     0.903067952788
O     -0.061998324611    -0.911920340228     0.609528570439
C     -2.373196366537    -0.287818774489     0.309576031460
H     -3.390195838639    -0.658692712815     0.539568578747
H     -2.232903064135     0.713468845227     0.744980686159
H     -2.215980917099    -0.280536719129    -0.783959897337
N      0.384152053007     0.689331892732    -1.999643545902
C      0.180680115359     1.668816396675    -2.939857154242
C      0.310610819119     1.385302350411    -4.283944907205
C      0.643305448180     0.117949368151    -4.704082868865
C      0.820554757926    -0.851532604895    -3.756345740793
C      0.669002450465    -0.530408746440    -2.389438173212
H     -0.097200079398     2.669702388552    -2.638118994344
H      0.153918240259     2.167694736907    -5.008326939768
H      0.751300901614    -0.109546721562    -5.761257711826
H      1.063922221902    -1.863594874290    -4.010844692806
O      0.833318433600    -1.548257215534    -1.574350048771
H      0.684927455509    -1.466595654734     1.771206407982

