# STO-3G

title

0 1
C      1.501848068891     2.531950697979    -1.041061855529
C      2.880623496823     2.433523629823    -0.760779536359
C      3.786595165273     3.239412959604    -1.483353955091
C      3.322674317682     4.130769236495    -2.470293383414
C      1.943227885047     4.219473949546    -2.740040549668
C      1.025623414903     3.419947552193    -2.025317025444
H     -1.588389244325    -0.479430899407    -0.002274842374
H      3.255728126699     1.736378427179    -0.013351866406
H      4.850890400060     3.164357299645    -1.270639127510
H      4.026730496252     4.750342467481    -3.021002754520
H      1.576234745598     4.907270016486    -3.499614211001
H     -0.038723693872     3.494368725411    -2.243404084689
C      0.474839201042     2.348177672937     1.874055431883
H      0.087217492900     1.657924277901     2.617408490065
H      1.526445136477     2.603828310876     1.952650722788
C     -0.380502282685     3.108190210306     1.062933425238
H      0.029472581040     3.916501171420     0.479526709596
C     -1.853090493948     3.081009679511     1.115144959462
O     -2.493856383729     3.826011926517     0.329918561703
O     -2.507991526555     2.213587718963     2.005322890368
C     -3.935211575165     2.147013010508     1.867395015445
H     -4.350874394794     1.448153311845     2.624169406348
H     -4.399086063044     3.146615033879     2.029596092269
H     -4.214321533016     1.766990364424     0.857275308610
Pd     0.317292603011     1.271494248960    -0.050091798600
C      2.297415983128    -0.495997633070     1.950305683690
O      1.802726892650    -0.936108174240     0.746608884480
O      3.393042073623     0.086317115861     2.006595461513
C      1.475779453896    -0.809350699595     3.251321634871
H      1.794708450168    -0.033015746422     3.960150491036
C      1.920412079373    -2.137194969755     3.829857228190
H      1.470641353343    -2.276473358723     4.835998443814
H      1.574942865024    -2.962213902274     3.173673690745
H      3.026041864154    -2.174576135786     3.927501442938
N      0.018205576328    -0.846496246698     3.284749157021
C     -0.865134778014    -0.697886219643     2.373144560084
O     -0.675441609134    -0.443455053545     1.038731294127
C     -2.255192605641    -0.869712584331     2.809502784691
H     -2.353891888342    -1.882821577274     3.234379629448
H     -2.459170613146    -0.107881172969     3.580042827791
H     -2.933712160500    -0.745430197800     1.946125346415
N     -0.000967850479     0.127577300574    -1.838186068668
C      0.865301178148     0.131162110102    -2.901440102733
C      0.467862557900    -0.376935852425    -4.122282340754
C     -0.793955341024    -0.904446042218    -4.284651141740
C     -1.630365080787    -0.931577888003    -3.201781151610
C     -1.184344589168    -0.416752752535    -1.964483941014
H      1.864235517806     0.534713653657    -2.792249327585
H      1.154650306402    -0.357192178388    -4.952139228126
H     -1.112041501714    -1.303547141647    -5.243939882703
H     -2.614681831971    -1.351024634263    -3.246080509124
O     -2.043193152518    -0.537443015550    -0.972045703522
H      0.792382343281    -1.043598282618     0.765536726409

