# STO-3G

title

0 1
C      1.246453231169     2.950916774028    -0.172102335109
C      2.611655566731     3.024573311767    -0.522399095481
C      3.167306583123     4.249790097768    -0.948277000173
C      2.366253939308     5.405234553890    -1.028643023938
C      1.003621761334     5.330444683303    -0.682196417761
C      0.441921993009     4.108593271560    -0.254234718661
H      0.716986156853    -1.311019483493    -0.456828260965
H      3.244091190909     2.139578186049    -0.476755436943
H      4.220718663366     4.295178693915    -1.217539266501
H      2.797930116517     6.348624703644    -1.354186422890
H      0.376892595852     6.218324955072    -0.736427345728
H     -0.614151612975     4.075574115000     0.009165027114
C      0.920137390153     0.851948351621     2.545341005386
H      0.110180859367     0.184532240123     2.815984017881
H      1.903486994898     0.391042923486     2.518490503523
C      0.751361463592     2.221710197750     2.466240589151
H      1.608712334172     2.865550426655     2.368331627307
C     -0.530566217849     2.904395072969     2.698719701769
O     -1.588056711685     2.299272772363     2.380472469010
O     -0.518670261516     4.296008847217     2.889141584641
C     -1.779146457304     4.954339366836     3.107471688852
H     -1.720945768834     5.555334670128     4.041202117530
H     -1.981975508986     5.651076113686     2.265745698678
H     -2.646247108358     4.261733519962     3.208713667174
Pd     0.494314298668     1.140709654463     0.304801989732
C      0.236262307254    -3.266284130857     2.858713333187
O      0.964370287534    -2.127989789509     2.640744514045
O      0.462314596787    -4.012790566963     3.820568814205
C     -0.902552806390    -3.601457360303     1.826199727798
H     -1.564811671103    -4.271998612658     2.382245204085
C     -0.356032837044    -4.374711402204     0.639062037011
H     -1.196817071054    -4.709232713601    -0.003891175609
H      0.312246634926    -3.725418613019     0.035321224665
H      0.208291582571    -5.266131887752     0.983981793287
N     -1.740111018906    -2.516168960473     1.296181790776
C     -1.362032808012    -1.408643394809     0.789726046684
O     -0.058359261154    -0.953560760064     0.667186094441
C     -2.393409399433    -0.515045366945     0.251739047082
H     -3.379431873551    -1.008741703603     0.339181877403
H     -2.388827228736     0.414355475087     0.841526237372
H     -2.160863144445    -0.322643557865    -0.810114452755
N      0.363280595771     0.746059460206    -1.781619617925
C     -0.006549807505     1.706059411939    -2.689067610838
C      0.155569180222     1.486953920454    -4.041883820792
C      0.689379060836     0.303883387706    -4.500446600806
C      1.028953674556    -0.651440794352    -3.582441830688
C      0.833255041334    -0.399312198097    -2.206920227125
H     -0.441606307106     2.637108805521    -2.351902601495
H     -0.133176090475     2.253463875661    -4.741960786401
H      0.824831743492     0.127660301547    -5.564178433273
H      1.428929982943    -1.603860153623    -3.866700179876
O      1.155847241766    -1.401327241978    -1.415459537343
H      0.658743628211    -1.624357887618     1.802638350405

