# STO-3G

title

0 1
C      1.563354075285     2.614074042660    -0.937130934018
C      2.944526202189     2.527476185806    -0.659503715407
C      3.855330895006     3.310717338801    -1.399853724102
C      3.396709966046     4.173486355524    -2.414131476902
C      2.018636210027     4.248805534985    -2.693888423859
C      1.100236113890     3.469676369502    -1.958628833983
H     -1.887324572428     0.162938906858    -0.053827017456
H      3.317520363849     1.839274369280     0.095334307148
H      4.919765907786     3.238234051992    -1.185689073421
H      4.102775456674     4.775709882640    -2.981411071020
H      1.654571091505     4.907431781372    -3.480365118590
H      0.038600623042     3.530238287530    -2.194962738048
C      0.490289549834     2.683013405243     1.952177725857
H      0.188747101786     2.023054609298     2.760151309389
H      1.527041358811     3.000980555669     1.929680102114
C     -0.465655057313     3.316183329351     1.152547018947
H     -0.157425351404     4.088550476006     0.464723561071
C     -1.924594197101     3.204740413665     1.345029359050
O     -2.677206993742     3.870984318079     0.587553825037
O     -2.431286213144     2.538459749900     2.475882747274
C     -3.856319098528     2.382526676124     2.513891986471
H     -4.142084217887     1.825921406499     3.431605392554
H     -4.364028135536     3.373542408611     2.534674439448
H     -4.210883615353     1.803051594657     1.630273418584
Pd     0.299970563492     1.463951095303     0.098993182703
C      1.785182488895    -1.204885817212     0.989651700568
O      1.051005134773    -2.168056494500     0.337134491883
O      2.769965200254    -0.680161687410     0.452178248781
C      1.252796116808    -0.839051715159     2.408809479900
H      1.371612169706     0.249577202696     2.481549672814
C      2.095669078214    -1.478985754968     3.486043997999
H      1.747963312084    -1.131552594036     4.481402239432
H      1.982493175093    -2.582367993196     3.442022193976
H      3.164879172598    -1.207611073133     3.360098860447
N     -0.121427577811    -1.300569740131     2.633305481736
C     -1.136500311303    -0.731020142503     2.057761721155
O     -1.161890484594     0.281885857092     1.180888701706
C     -2.444271976158    -1.297933147032     2.415407591681
H     -2.443301860085    -2.365872977440     2.141522477405
H     -2.575779759028    -1.176545662605     3.503361451937
H     -3.239921563931    -0.763409752057     1.864230764945
N      0.103485345808     0.169673798754    -1.562416699660
C      1.148189760632    -0.134976418396    -2.396192613669
C      0.918801889949    -0.832804940608    -3.565732951331
C     -0.353403123334    -1.243026992251    -3.897629960187
C     -1.375325210203    -0.956138829492    -3.032722510463
C     -1.099711823334    -0.250386031473    -1.841066548738
H      2.154012315058     0.180695026676    -2.148437809573
H      1.746481388161    -1.057126366772    -4.217309792393
H     -0.539468786899    -1.791678452804    -4.816718399249
H     -2.385413514360    -1.260659917705    -3.214612187404
O     -2.144861338147    -0.068353703283    -1.051239337586
H      0.261907966541    -2.403194825887     0.886950812021

