# STO-3G

title

0 1
C      0.105506337185     2.466767265359    -1.662514920918
C      1.438757562420     2.874401364359    -1.883237012795
C      1.706505900460     4.164677497880    -2.387113193182
C      0.650227037083     5.047275050145    -2.685501888855
C     -0.680456560928     4.638305537331    -2.470474753091
C     -0.955062585229     3.351922041065    -1.960975792259
H     -1.034594904623     1.924713868942     1.480260584026
H      2.264667799782     2.202874514581    -1.661164447063
H      2.737932478549     4.475269501287    -2.543465590590
H      0.860998148277     6.039728202725    -3.077341982638
H     -1.502871121131     5.314226044354    -2.696585576737
H     -1.988868766904     3.053017987566    -1.792879691601
C      1.310356209412     1.828119988478     1.742807671230
H      1.554504768245     2.851494848935     1.466714536617
H      1.621039547731     1.050634574933     1.047221382755
C      0.658548480554     1.490167859895     2.886303051621
H      0.468075156061     0.441789063801     3.083454216279
C      0.228368372266     2.434244801832     3.929348141147
O     -0.475791270822     2.001864194607     4.880787688538
O      0.515574185642     3.805786066705     3.797047410096
C      0.014553513635     4.654753627242     4.838795204024
H      0.306229357223     5.706087747564     4.628154632469
H     -1.096862191962     4.605616528761     4.888277183533
H      0.442857480570     4.365219287021     5.825155025458
Pd    -0.425289699203     0.744297112646    -0.832197836163
C     -0.316298761466    -2.509367602350     1.982076691371
O      0.805417084988    -1.769245756518     1.957275280517
O     -0.570218739761    -3.347553109851     2.862106962057
C     -1.416273256028    -2.186012474457     0.893884355990
H     -2.360799969887    -2.542349251430     1.326261773788
C     -1.182807720005    -2.900122355895    -0.413822050467
H     -2.001103312335    -2.654811983119    -1.121821093386
H     -0.221626271611    -2.577672648197    -0.856536303964
H     -1.160058220418    -3.997603944495    -0.250139633947
N     -1.414411819278    -0.749617443134     0.614258524958
C     -1.943135072943     0.156508511493     1.332919051565
O     -1.716743251207     1.471174283732     0.910101342545
C     -2.746686231575    -0.065863473369     2.544806338321
H     -3.637262688504    -0.657264960661     2.275070354417
H     -2.123100425196    -0.591214470560     3.289846696357
H     -3.052824275718     0.915919802095     2.950933427630
N      0.921461852557    -0.201476537343    -1.993970764681
C      0.930379621322    -0.123816720733    -3.358803669163
C      1.942133725881    -0.728233809681    -4.073138723881
C      2.950162119767    -1.408606534779    -3.426442464124
C      2.925468198241    -1.471718331219    -2.058027941413
C      1.881347940746    -0.843454382734    -1.338582307570
H      0.141122999102     0.409690905292    -3.875905336754
H      1.943154326711    -0.661287594855    -5.148777439553
H      3.749676434801    -1.883005433160    -3.989403844583
H      3.685712294374    -1.979865075886    -1.498959814915
O      1.934835627551    -0.936786697709    -0.060570232389
H      1.178566414964    -1.362902868975     1.060153701637

