# STO-3G

title

0 1
C      2.808039121537     0.089032061396    -1.314373461601
C      3.230604220226     0.587329339353    -0.043577051076
C      4.321304034660    -0.030569499124     0.636625754340
C      4.960831540941    -1.137441128970     0.070572733776
C      4.542119435436    -1.636648177305    -1.195836088690
C      3.489680887174    -1.026783915970    -1.886533926870
H      2.035794080860     0.607792371555    -1.872243302033
H      2.783568198044     1.496606437330     0.344744771420
H      4.651150111642     0.369397434653     1.591289313969
H      5.787021380625    -1.615435197696     0.590169846255
H      5.051382797690    -2.492327844827    -1.631771280981
H      3.183528229592    -1.401668562734    -2.858245031728
C     -0.337111963788    -1.175861907605    -2.446950952379
H     -0.059430111401    -2.216775134854    -2.290096617034
H     -0.924905407550    -0.695548515970    -1.671740355772
C      0.007679168907    -0.468755398776    -3.549169627702
H     -0.302008155043     0.565676792035    -3.628338555844
C      0.783434371793    -0.990624700707    -4.685168393086
O      1.276847430333    -2.150647276469    -4.629688298150
O      1.043533872161    -0.139433531853    -5.773093568178
C      1.845278199006    -0.692468312256    -6.826182105517
H      1.977189998028     0.068144536289    -7.625729025232
H      2.853412151249    -0.976991469718    -6.448154431318
H      1.351113621544    -1.584906504536    -7.272947617080
Pd     1.301595251843    -0.845028841465     0.226453503816
C     -0.725531488493     1.356025163087     0.731005550284
O      0.313029448743     0.868672542032     0.029711353976
O     -0.988911879023     2.576387163037     0.561697537141
C     -1.582440648779     0.491555839668     1.692412047628
H     -2.453664465570     1.130653392608     1.864615782748
C     -0.888134124981     0.268512941174     3.027918717895
H     -1.582921705295    -0.252292270932     3.719507153649
H      0.014826613246    -0.357221921288     2.891707196489
H     -0.600075017794     1.241736841926     3.477436357614
N     -2.106740324134    -0.790242554955     1.201347004395
C     -1.431294657785    -1.840911091037     0.902756782556
O     -0.087992920294    -2.047995143553     0.890640477702
C     -2.205174107128    -3.033001291659     0.526505031982
H     -1.952471436919    -3.837198536571     1.237008046641
H     -3.284488136659    -2.800664479384     0.582406578754
H     -1.927226736350    -3.315956647711    -0.502534490002
N     -2.682130710507     0.964988364732    -1.422954411669
C     -3.764664116203     0.147084194150    -1.593596575841
C     -4.446402812114     0.152676419446    -2.799227528108
C     -4.047271596342     0.988223098813    -3.824369886730
C     -2.967676936976     1.808271849790    -3.613873147682
C     -2.317034331088     1.759134519553    -2.362220405602
H     -4.075548843834    -0.511378545848    -0.791180155639
H     -5.293964509777    -0.498385628980    -2.930758777061
H     -4.577545082095     0.998570590526    -4.772609484666
H     -2.603341882081     2.487805379484    -4.357068328768
O     -1.258584558243     2.592794645849    -2.251553585913
H     -0.942355992872     2.646449267226    -1.311250221666

