# STO-3G

title

0 1
C      1.246601225695     2.808410914702     0.132290574865
C      2.357134627732     3.652701913803     0.345108447424
C      2.252320893897     5.033636748740     0.073599869685
C      1.045558954509     5.577149267706    -0.406601680465
C     -0.059941404274     4.731665770433    -0.620714716332
C      0.038717834836     3.349596173870    -0.357436804527
H      0.651716589583    -1.385553148678    -0.529853579645
H      3.297474828177     3.256122074721     0.722223270730
H      3.109495013134     5.680501039755     0.250023225943
H      0.966763013547     6.643275059771    -0.605502369337
H     -0.997251130957     5.140731476939    -0.992371666392
H     -0.822313498871     2.708185485970    -0.532329511172
C      1.115848111528     0.308383372343     2.638757758511
H      0.119351945277    -0.121625059674     2.705175369609
H      1.943530953531    -0.393791839771     2.672007139853
C      1.333459931087     1.665502368185     2.737509794410
H      2.341475505865     2.042115538560     2.830164943252
C      0.269752468858     2.657080412920     2.978160087185
O      0.592654187948     3.802687419814     3.388539601165
O     -1.052258350794     2.360858849437     2.595904554565
C     -2.004190674441     3.416985600103     2.785782071278
H     -3.009262191827     3.073529497048     2.461757396433
H     -2.066435465262     3.703672303432     3.860304529845
H     -1.727469443636     4.310740802243     2.180663810851
Pd     1.368086981440     0.820023351315     0.390892408707
C      0.946785447908    -2.425641015487     1.310881347075
O      1.287124586651    -1.456342639713     0.402756099913
O      1.706187211446    -2.786055369427     2.218763228142
C     -0.495044894096    -3.000591791870     1.116986040554
H     -0.833832981270    -3.315302954554     2.108168553782
C     -0.511388441897    -4.190367181465     0.182610898174
H     -1.547281320515    -4.576067382576     0.084850470221
H     -0.138689503208    -3.886287487726    -0.818892849438
H      0.138349052667    -4.996206263664     0.583173571674
N     -1.415277154658    -1.996324603501     0.590192784539
C     -1.982466589715    -1.080473988855     1.413674019681
O     -1.816727159824    -1.037888621619     2.658662148025
C     -2.835909101434    -0.074880582394     0.750504594912
H     -3.665637402346    -0.601933869015     0.249265200603
H     -3.227363391342     0.607817192489     1.525817887437
H     -2.221942272578     0.488401381282     0.026172963344
N      1.433921367431     0.689202969202    -1.721211583566
C      2.111093217079     1.595609906338    -2.496223185008
C      1.916713218239     1.627451723810    -3.862121460636
C      1.055144458528     0.742852780354    -4.469293251184
C      0.413406824055    -0.179190303936    -3.688237786268
C      0.644143796758    -0.197247144636    -2.293167008642
H      2.803229940918     2.293033279982    -2.042230117703
H      2.448068584839     2.353734562742    -4.454695621794
H      0.902202904829     0.764300724639    -5.544939197414
H     -0.240034416743    -0.920221625767    -4.100267330710
O      0.042656550937    -1.145112747499    -1.631757548778
H     -1.397988916932    -1.803879424904    -0.408864625790

