# STO-3G

title

0 1
C      1.882851905563    -0.343455057661     2.699984627261
C      1.026647369249     0.073034148950     3.739565903447
C      1.484434005390     0.059318871294     5.071846542822
C      2.794872660426    -0.370518997996     5.364972599630
C      3.649221848885    -0.788938429178     4.325172510226
C      3.191340999310    -0.775880782413     2.992393843537
H      1.522379438457    -0.345618598865     1.675799116967
H      0.018413286845     0.394512859170     3.493662044939
H      0.825410241777     0.379134601618     5.876234988579
H      3.147411173920    -0.379909391954     6.394308836699
H      4.659818152846    -1.123040037999     4.550592399803
H      3.841865748414    -1.110860555464     2.186300447262
C     -0.801447415553    -1.991258306319    -1.011844540448
H      0.100510954217    -1.441517360523    -1.246221776015
H     -1.530552216641    -2.087583962472    -1.813461055891
C     -1.015223961995    -2.635057767821     0.207810126613
H     -1.926900981848    -3.199499187387     0.355206326289
C      0.026150523385    -2.879788957121     1.219134837807
O      1.241249896370    -2.757572598125     0.904975805872
O     -0.354980322224    -3.509831501501     2.417039976622
C      0.706229354861    -3.820211019326     3.331476673894
H      0.283909436033    -4.319244345810     4.229444358301
H      1.444651636992    -4.510065379379     2.864012814083
H      1.225838639201    -2.895600326971     3.666634773762
Pd    -2.134248743999    -0.630441171726     0.202971536778
C      1.257508534682     0.906170233239    -3.007191346848
O      0.652775424470    -0.332412147524    -3.169874813087
O      1.439778988764     1.678777803676    -3.958927227669
C      1.652257576861     1.179302184239    -1.542349347252
H      1.869509802130     2.260876787563    -1.501919304051
C      2.912772548953     0.424139950255    -1.164226148693
H      3.224246518968     0.705953984158    -0.137962815089
H      2.706420864685    -0.668463758816    -1.176487782718
H      3.736082474686     0.657917085097    -1.870591396979
N      0.586650878870     0.695605741169    -0.689727443306
C      0.121479494649     1.205401371703     0.392088231264
O     -0.864449654697     0.639131960418     1.096732184097
C      0.648374744747     2.462922769394     0.969598895256
H      0.110079370137     2.679131754962     1.909994239479
H      1.720426041336     2.319527811106     1.183745316908
H      0.483657782223     3.278885826171     0.246135369017
N     -3.892394934249     0.501265490356     0.315844986677
C     -4.512548855849     1.659049564294     0.677609495543
C     -5.868012602915     1.805630377539     0.430637737083
C     -6.593187212668     0.791465916661    -0.174303153055
C     -5.943466742728    -0.366565641376    -0.528211290315
C     -4.565225266027    -0.469947586651    -0.257414844222
H     -3.947365961207     2.453122893288     1.151478174367
H     -6.359917337282     2.720391572959     0.716279668446
H     -7.656431737113     0.909172853156    -0.364935743834
H     -6.434755338559    -1.194218927964    -0.996360366394
O     -3.884969761787    -1.554929899707    -0.570381544366
H      0.374198992882    -0.462938454456    -4.102108339950

