# STO-3G

title

0 1
C      0.161546259455     2.959591852653    -1.481203595879
C      1.192037237869     3.469430385305    -2.296163606302
C      1.213251145736     4.839387102793    -2.624594762971
C      0.207272284251     5.698860325688    -2.138745611677
C     -0.820600958497     5.188678012448    -1.321027026107
C     -0.842335986478     3.819226617127    -0.991683411832
H      0.154587079179     1.904122192774    -1.230357941944
H      1.969507250747     2.804437064750    -2.663408606922
H      2.009225360247     5.233408984899    -3.251991506194
H      0.224228644843     6.756061138590    -2.393691699525
H     -1.598108523517     5.848762743000    -0.943231165185
H     -1.636690429513     3.432466798605    -0.353737347057
C     -1.997142739449     0.021002960153    -0.998424554888
H     -1.546468876307     1.000537726815    -0.899726195098
H     -1.552170772426    -0.626011550966    -1.747293505110
C     -3.228107271861    -0.266685258075    -0.385177359972
H     -3.744972195390    -1.184935811774    -0.618156729160
C     -4.030515609717     0.722738540377     0.360904131808
O     -3.718122874078     1.943723118195     0.323753040048
O     -5.235928800419     0.295781947008     0.943248064219
C     -5.984026373490     1.302145448304     1.640111131234
H     -6.904310842361     0.848220515709     2.066791464443
H     -5.386431260630     1.729388840280     2.477501417210
H     -6.288591450308     2.119957346960     0.948004840312
Pd    -1.561706636431    -1.075550154981     0.862433835887
C      2.404595064190     0.386137233592    -0.679190053236
O      1.360938060292    -0.390235270379    -1.121908546991
O      3.420908446605     0.633100960590    -1.338161831966
C      2.113384383869     0.935449972216     0.765209899380
H      2.353359295352     2.008829727161     0.759439790917
C      2.965470809514     0.234954514600     1.800767783910
H      2.774035903216     0.668221401791     2.802907852668
H      2.706638690109    -0.845631782510     1.830331218029
H      4.042077972627     0.351281787417     1.555870214469
N      0.720105059346     0.594967249242     1.022544009462
C     -0.180152886194     1.177945898404     1.738926363128
O     -1.416817550588     0.691737163720     1.823977374205
C      0.086793525915     2.427252515661     2.473767831500
H      0.889282521810     2.236398285182     3.204421914779
H      0.378555787807     3.201758160456     1.744373657193
H     -0.835475943086     2.738313730536     2.998699831306
N     -1.507954589790    -3.002775545922     0.179313697255
C     -1.821347416568    -3.845951923378    -0.845121488265
C     -1.339037832143    -5.142340307755    -0.829267867780
C     -0.542995079577    -5.592393826467     0.210429640366
C     -0.233821093668    -4.725696734515     1.229537976553
C     -0.740898681035    -3.412617188051     1.177618173001
H     -2.446039342938    -3.501314010185    -1.660848871868
H     -1.588039213090    -5.808442176669    -1.638955504639
H     -0.165768885655    -6.611519616969     0.217929447049
H      0.382783370746    -4.998743031302     2.061118039594
O     -0.452761502071    -2.539705080801     2.100732552096
H      0.708896089738    -0.349899760083    -0.323066168516

