# STO-3G

title

0 1
C     -0.632043644319     1.599804279805    -2.203590847545
C     -0.782370827645     0.710133150182    -3.285939236663
C     -1.577026286340     1.070731970257    -4.392550261887
C     -2.216688902059     2.326772495548    -4.419657368732
C     -2.068991224407     3.215828916360    -3.335123061548
C     -1.281694775563     2.850001253531    -2.224944988750
H      0.009864816217     1.341239725745    -1.367147998529
H     -0.272333567835    -0.251938576592    -3.268460322228
H     -1.686698599241     0.384697034776    -5.229929829106
H     -2.819048909171     2.611307644417    -5.279823075244
H     -2.559595905897     4.186559290068    -3.355988825293
H     -1.165497202587     3.520090113963    -1.377194821201
C     -2.507670216326     0.991004568019     2.065736189444
H     -2.612884485802     2.025110155431     1.759719122036
H     -2.038130193753     0.820562254241     3.029773281404
C     -3.026619476917    -0.061963412653     1.315350149801
H     -2.979857596892    -1.059305544157     1.724329022085
C     -3.826305027020     0.091149718065     0.089876134214
O     -4.289693313394    -0.942690165494    -0.460621170015
O     -4.010356453226     1.366629121038    -0.468713912884
C     -4.638548146668     1.399582848881    -1.757282605012
H     -4.716296120103     2.453141217710    -2.100543733916
H     -4.030406709667     0.840762301400    -2.504919252324
H     -5.663833061366     0.968355264959    -1.711999828957
Pd    -0.814353644830     0.266959091929     0.752833575757
C      2.543941835392     0.007768698859     2.826423841949
O      2.850118804846     0.463130269354     1.561358480853
O      2.705079119169    -1.163416170627     3.201153946499
C      1.884917485944     1.161095629622     3.641695679435
H      2.613541867488     1.989854257201     3.712079486765
C      1.462858573184     0.739694107658     5.027658113113
H      0.964654029719     1.589763006000     5.536838238653
H      0.744596325050    -0.103746083878     4.954320358160
H      2.346399289861     0.420147502814     5.617743511810
N      0.673898368077     1.430656798546     2.872715016092
C      0.526011348582     2.346938678733     1.978300653079
O     -0.434634062934     2.248166950843     1.043285593446
C      1.393116457459     3.539185982795     1.881938247592
H      1.365452380767     4.063775812747     2.851390530233
H      2.412036927928     3.203628915944     1.625579366560
H      1.009708862113     4.198329073338     1.081494795361
N     -0.733562574389    -1.692182750077     0.095236787574
C     -1.441096279910    -2.848693730928    -0.072441261293
C     -0.810799039806    -3.962231439207    -0.599730769959
C      0.523276185912    -3.918280761848    -0.961814640751
C      1.211459003502    -2.741663220492    -0.799286146707
C      0.530129837183    -1.631893780280    -0.263545855166
H     -2.485365625173    -2.898473547484     0.210131599999
H     -1.371962709748    -4.873440659597    -0.726512518930
H      1.015128953713    -4.795941183353    -1.372598674211
H      2.242502245432    -2.633163074054    -1.065641450472
O      1.136754800007    -0.484908851232    -0.108723380372
H      2.422576295414    -0.056412121413     0.811945306663

