# STO-3G

title

0 1
C     -1.071293039586     2.150381325335    -2.221737418349
C     -1.028510706055     1.034530168720    -3.082575767307
C     -1.789492114830     1.024305117100    -4.268095925949
C     -2.592045015675     2.134304110832    -4.601749022736
C     -2.631688525398     3.254232604454    -3.747021437281
C     -1.873565590512     3.259499578533    -2.558526313688
H     -0.472259371202     2.171526285406    -1.316115436447
H     -0.391627346214     0.188788942007    -2.832212148182
H     -1.748195377094     0.162907887139    -4.931938948664
H     -3.171751218308     2.129874221798    -5.522505806004
H     -3.241810169859     4.116715087665    -4.007015620600
H     -1.899078455906     4.123480751900    -1.897868337518
C     -2.074425050094     1.360149814222     1.956135823178
H     -2.208446138485     2.344383753166     1.520396552322
H     -1.466553196046     1.307928647431     2.854326592833
C     -2.691560415475     0.228812932165     1.436611045612
H     -2.592021669680    -0.708594797186     1.963649114238
C     -3.642590978678     0.239964789874     0.313099628818
O     -4.198919540232    -0.839672933358    -0.021483407559
O     -3.913749565288     1.443719616670    -0.357965008055
C     -4.708939456717     1.332547678871    -1.545983038800
H     -4.850075547376     2.341816299720    -1.987864815233
H     -4.195395046403     0.698014379544    -2.303880031181
H     -5.711762851107     0.907005708218    -1.316918204750
Pd    -0.539799709213     0.405543557093     0.569955529690
C      2.478551622353    -0.365152764760     3.144781927649
O      1.470595267802    -1.110919048860     2.548813990458
O      3.661840978864    -0.731369674407     3.157334709825
C      1.948696115163     0.972941356220     3.724814976636
H      2.849329167647     1.602143467437     3.848788658268
C      1.303112702655     0.783946499259     5.078384684454
H      0.973839170033     1.768722249808     5.469184305070
H      0.412273537614     0.129772321266     4.973102526912
H      2.020857890055     0.327640770515     5.791199041420
N      0.922350852522     1.453620268528     2.825339422358
C      1.064173545990     2.269839497883     1.837014046535
O      0.166766047713     2.310962274477     0.842448450051
C      2.212429746404     3.192697443711     1.713497754838
H      2.248904428324     3.819333458519     2.620006416926
H      3.127716627265     2.589338516967     1.594344543404
H      2.067728568529     3.825276913145     0.818160579135
N     -0.693234522770    -1.555682176988    -0.051693398356
C     -1.439132359098    -2.698892178083    -0.058054944671
C     -0.907115229830    -3.853887577334    -0.605657891143
C      0.361413125028    -3.862086509208    -1.157661066777
C      1.095495278853    -2.702169543708    -1.140617881550
C      0.519102944214    -1.547307033493    -0.575158776152
H     -2.431966127480    -2.708511968215     0.373365008895
H     -1.500626624307    -4.753486901922    -0.610371128812
H      0.769076444238    -4.769329545979    -1.595551039439
H      2.079505980711    -2.628137790410    -1.557050565797
O      1.175709910526    -0.421249223046    -0.533896010371
H      1.841820236397    -1.828005601221     1.986595253102

