# STO-3G

title

0 1
C     -1.522405923098    -2.959267730472    -0.053814487067
C     -1.941257633019    -3.478403452644    -1.296406595149
C     -3.250690144460    -3.974596995027    -1.455149593956
C     -4.151095415069    -3.950245791354    -0.370029112306
C     -3.734208804411    -3.440977010875     0.875823736942
C     -2.420964995458    -2.951485256924     1.033371437705
H     -0.499922317162    -2.603418353133     0.045731768277
H     -1.240953062707    -3.498939206455    -2.128720925108
H     -3.563228104410    -4.381441719131    -2.414683443552
H     -5.159684711319    -4.339870367018    -0.490071491960
H     -4.419811302030    -3.442187837679     1.720664296286
H     -2.095631801937    -2.590602238712     2.008128647926
C     -0.676727941682     0.338008122825     1.023292558363
H      0.334872173280     0.188335101938     1.385591659686
H     -1.246919302700    -0.555721930516     0.804010114603
C     -1.278264669672     1.604376617995     1.031977751613
H     -2.326341605299     1.700897845497     0.788245641157
C     -0.659302382756     2.811870695216     1.613267407909
O      0.426231293652     2.719272635513     2.249894853102
O     -1.386500019275     4.013773093046     1.581126065413
C     -0.734397979502     5.154686918211     2.156128385192
H     -1.395594229008     6.043000813924     2.062137300160
H     -0.526256582423     4.989143434796     3.237649214359
H      0.219352740205     5.373560826548     1.624012256478
Pd    -0.472437039737     1.180381042063    -1.025498045982
C      2.829996478809    -2.018898249340    -0.177987233475
O      1.506374729119    -1.913363573807    -0.513329391487
O      3.483899041300    -3.067945348139    -0.169051712951
C      3.400176755789    -0.604166807665     0.223280994824
H      4.322613275270    -0.439003141493    -0.351203995904
C      3.713666190207    -0.555988627098     1.704849229305
H      4.176502560678     0.413919158232     1.969879430740
H      2.778859766386    -0.676266138762     2.291388180165
H      4.420582431622    -1.369628045040     1.972257628681
N      2.304867523218     0.319246478179    -0.066339495223
C      2.285633997162     1.592888455788    -0.286182187845
O      1.175648612916     2.247138370086    -0.594457207495
C      3.508476726021     2.416076933468    -0.221056173427
H      3.254421090772     3.451266701247    -0.513964163766
H      3.873061398530     2.410811911682     0.817456769961
H      4.253822558771     2.003607295900    -0.921684850993
N     -2.054556289676     0.237803867902    -1.918453281531
C     -3.230101968416    -0.430240650904    -1.740868801708
C     -3.896396074290    -0.934080594391    -2.844358523957
C     -3.372638459358    -0.792248666346    -4.117633866658
C     -2.178450742901    -0.132103051033    -4.271638449027
C     -1.536992144822     0.377105658397    -3.125922000041
H     -3.640846358438    -0.554467938448    -0.745685358325
H     -4.823407756790    -1.463207582690    -2.699890240563
H     -3.893955817603    -1.200446860354    -4.979089217829
H     -1.707714742651     0.011064131305    -5.222344997805
O     -0.392494050281     1.001881523178    -3.208991691628
H      1.368081481979    -0.873786727868    -0.459454537852

