# STO-3G

title

0 1
C      1.410783232274     2.298805134841    -0.640750115433
C      2.679154177166     2.773617778347    -0.258547069508
C      2.799436378428     3.599063061418     0.878142372190
C      1.661519721053     3.931538559773     1.640974716052
C      0.396005709065     3.450310585618     1.261621047410
C      0.257709227385     2.640165673907     0.107678107866
H      1.296640054915     1.670820058803    -1.518702728313
H      3.560682074937     2.520054850127    -0.842841094403
H      3.777420292798     3.966013764234     1.183097426958
H      1.767214360844     4.551504623875     2.527701233247
H     -0.485064170354     3.687220563082     1.851687352271
H     -0.739232362094     2.379799760915    -0.264031407160
C      1.426715942894     0.760502401460     3.503403067860
H      1.605163798880     1.772222068046     3.860572331964
H      0.459822878866     0.307085538044     3.708477469119
C      2.347455649774     0.068248601913     2.789606770699
H      2.091435719783    -0.920768297608     2.431663835069
C      3.683802145291     0.557376918292     2.417057061677
O      4.164526992362     1.589027326301     2.958754730079
O      4.358255266254    -0.098829834907     1.369092352186
C      5.659177313019     0.414701992716     1.048263235090
H      6.099402019482    -0.180169580411     0.219036655868
H      5.597075331593     1.478104411153     0.722643848398
H      6.340397489314     0.340227258694     1.926705314861
Pd    -0.106589308770     0.320762112758     0.917477553113
C      1.004518608136    -2.029613585495    -0.654337856489
O      1.427912827353    -0.747378682675    -0.195090884322
O      1.767005402462    -2.760837292839    -1.276218234402
C     -0.455484068960    -2.268789803346    -0.203064873433
H     -0.579010430873    -3.360421282495    -0.185581278782
C     -1.451302142925    -1.691725873614    -1.185351661713
H     -2.481435208995    -1.902053267044    -0.829136952945
H     -1.330849217286    -0.591160440102    -1.251784458272
H     -1.314168876543    -2.142768436402    -2.190014996397
N     -0.651460658240    -1.608541856270     1.081485761523
C     -0.837299012803    -2.166606412807     2.304392323144
O     -0.671103792037    -1.563282728631     3.394173338648
C     -1.300573788712    -3.576735887516     2.350548362079
H     -2.219443638551    -3.655820553843     1.745322432198
H     -0.493647483536    -4.226796420365     1.978048456278
H     -1.525778235887    -3.836476154418     3.401686106366
N     -2.753440614843     1.385874995564    -0.162058524038
C     -3.891576815746     1.730169430754    -0.839957517166
C     -5.055253939018     2.013800748954    -0.149018103218
C     -5.083007530651     1.954673660962     1.228611374046
C     -3.934253411744     1.607449826892     1.887181382415
C     -2.768265892467     1.319362462344     1.137070084703
H     -3.876294093028     1.782189640185    -1.922128487905
H     -5.943509636758     2.285161380182    -0.694183481581
H     -5.993505786516     2.176920852375     1.778233938135
H     -3.877821855470     1.533103013867     2.954479952424
O     -1.718946560661     0.998869927954     1.880288466422
H      2.388164547042    -0.565788074094    -0.287422748270

