# STO-3G

title

0 1
C     -0.163645285465    -1.927379204329    -2.064540097431
C      0.431172501717    -1.445210734566    -3.247310850087
C      1.314190083064    -2.264644667242    -3.978963156508
C      1.596382222481    -3.570373093221    -3.531338707621
C      0.992062976096    -4.057199180158    -2.354111419993
C      0.113069182090    -3.236404689854    -1.620033916542
H     -2.208588419184    -1.032452353680     0.996300840053
H      0.204539050017    -0.442567520237    -3.604542327116
H      1.774634140368    -1.888845013787    -4.889730022426
H      2.275459202649    -4.204143271360    -4.097428189846
H      1.201515473875    -5.068907041701    -2.013396755153
H     -0.361065418560    -3.594674286643    -0.710731829772
C      0.278043507120     2.758404598244    -0.284241492394
H     -0.302124207590     3.618591174016     0.034722481473
H      1.361195736167     2.768110407656    -0.211036224564
C     -0.292736263615     1.749573952985    -1.066798247060
H      0.358399056527     1.009145214626    -1.504712873603
C     -1.677381710134     1.750488297072    -1.569511699727
O     -2.409088077092     2.764053431808    -1.417801481571
O     -2.108515301017     0.635987877508    -2.309544145091
C     -3.515849151675     0.583677247069    -2.583106148450
H     -3.749258000091    -0.338820143383    -3.156892835817
H     -4.100206628307     0.553693599528    -1.633832182317
H     -3.838104959628     1.461787873466    -3.187956103566
Pd    -0.156590308662     1.036277886746     1.097465307400
C     -0.201106384204    -1.353732395032     1.794954098009
O     -1.110752121747    -1.980768891652     1.147214145293
O     -0.493904111362    -0.365675452815     2.641570783592
C      1.303620978262    -1.452214225158     1.428254166423
H      1.458830882234    -2.316496514131     0.773553005469
C      2.185244235411    -1.540543242036     2.657586123938
H      3.249922612376    -1.629013042268     2.371685637987
H      2.059601215583    -0.623283924233     3.271497593916
H      1.902028361356    -2.425339595219     3.264564481401
N      1.521159369424    -0.138995472127     0.757966786273
C      2.467718544289     0.136594978587    -0.167841551905
O      2.621253401807     1.272151401463    -0.706473606918
C      3.364078956190    -0.953989488949    -0.627463334400
H      4.048850513384    -0.542145965401    -1.391328906618
H      3.955459217960    -1.317879704948     0.224496494072
H      2.757260286761    -1.752917022457    -1.086622276857
N     -2.070158832842     1.699267627996     1.505555867558
C     -2.280161813109     2.956607715173     2.005525178710
C     -3.560577718267     3.401547686933     2.257879481439
C     -4.641880127671     2.588020162306     2.008461553645
C     -4.410301899397     1.326173035889     1.532985201434
C     -3.083198903796     0.889767661777     1.310579002689
H     -1.436663524161     3.608677498930     2.196641609876
H     -3.712351139589     4.396880646291     2.639699014713
H     -5.654293684547     2.934462339235     2.196223770768
H     -5.204046653566     0.633226123062     1.344154118841
O     -3.008530316770    -0.342950417596     0.871643605998
H     -0.849055408431    -1.307266867874    -1.492543197076

