# STO-3G

title

0 1
C     -0.023447298759     2.553653607395    -1.051698649590
C     -0.356103892143     3.781894351892    -0.443356091505
C     -0.784455879151     4.864532844828    -1.240816827924
C     -0.880949329851     4.719907341026    -2.638420472464
C     -0.551902425437     3.488175044414    -3.237817777898
C     -0.115946120784     2.403346573021    -2.448597816463
H     -1.801309652457     0.677505270293    -0.210767149953
H     -0.301418457110     3.901404584224     0.637210538349
H     -1.044207404682     5.810677799616    -0.769949187156
H     -1.212669124885     5.554357727400    -3.252376297898
H     -0.634095637094     3.365753074511    -4.316088780287
H      0.127525388392     1.454534002292    -2.918125824968
C      1.023427949532    -0.862853182082     1.658056399139
H      0.092929482688    -1.017972410595     2.194649140561
H      1.251246709568    -1.581800170417     0.878777885064
C      1.932041682446     0.106403454177     2.001596633298
H      2.873494853209     0.153128040946     1.475106592188
C      1.785239943382     1.048757857507     3.121916115770
O      2.650654751398     1.950958594197     3.262323208271
O      0.585635555259     1.070770667865     3.854566424131
C      0.497558351769     2.065851439910     4.884689494333
H     -0.481965660908     1.976437770486     5.402571726427
H      1.302865364619     1.925422845606     5.641387037760
H      0.569986988657     3.090633689613     4.454261436785
Pd     0.567776603604     1.084766846543     0.178693874782
C     -1.326167916976    -1.508815354247    -0.778441622900
O     -1.535380980830    -0.396029752059    -1.361701444271
O     -0.234603513505    -2.227239353301    -0.947639499054
C     -2.303226781171    -2.037076089215     0.311590155272
H     -1.905226098877    -2.990695061473     0.673661177110
C     -3.690551510202    -2.278361906564    -0.241730251299
H     -4.334770279618    -2.721201159074     0.546396447442
H     -4.130169932954    -1.309785297053    -0.559218798875
H     -3.647330727170    -2.969528850614    -1.108471414118
N     -2.471713574260    -1.170525898978     1.484156252531
C     -2.178396904970     0.054912944691     1.658506449398
O     -1.617997382794     0.971884937681     0.751789257303
C     -2.468027718504     0.621995961906     2.977570456863
H     -1.912826129487     0.034199458986     3.727956796918
H     -2.154356763821     1.679288650246     2.997917566264
H     -3.554584491478     0.534450696688     3.151453418130
N      2.281690646160     0.990113542111    -0.904898099441
C      3.110432887814     2.077484753074    -0.964121290839
C      4.263798034609     2.023909952769    -1.714548325660
C      4.587798098399     0.889351312357    -2.421986857395
C      3.737210835164    -0.182321658789    -2.364616891288
C      2.550110807509    -0.109732990458    -1.596156474687
H      2.868076853112     2.972978209815    -0.403371772525
H      4.912794144452     2.883552654689    -1.748998158113
H      5.496024951566     0.846531791283    -3.017264840567
H      3.931213493444    -1.086395486038    -2.906090111343
O      1.819659948963    -1.163897267634    -1.636066828564
H      0.656743026746    -1.689117690913    -1.336076642384

