# STO-3G

title

0 1
C      1.119105723707     3.501691389633    -0.245628397059
C      2.445757682752     3.375397370526    -0.754668864436
C      2.674952892736     3.392970730001    -2.132989474236
C      1.585255973255     3.529664856519    -3.035011730067
C      0.272443427258     3.618105352542    -2.554242786204
C      0.028495816286     3.613278005915    -1.155143098107
H     -1.282306747365    -0.606570268264    -0.163071072091
H      3.274131797274     3.291010343825    -0.055622497733
H      3.689789794825     3.319741076573    -2.516554360147
H      1.776412268278     3.572378650186    -4.104882961450
H     -0.560355293979     3.726591461481    -3.243751286177
H     -0.967592486985     3.826410574061    -0.781525349275
C     -1.063668545478     2.390888226892     1.474786659037
H      0.969517329453     3.717898924580     0.806676296687
H     -2.049813411019     2.601866728349     1.056418359467
C     -0.727024032182     2.626066902950     2.757977381032
H     -1.433773856296     3.067664917481     3.449999445714
C      0.575088144395     2.254385606481     3.329490781734
O      0.859870920691     2.624776066222     4.498044632713
O      1.560549112777     1.742849960252     2.462334810214
C      2.751028570262     1.259948241321     3.099621015983
H      3.444281333465     0.853458682819     2.331551382640
H      3.272488158955     2.078081903405     3.646239551974
H      2.508337300152     0.434457102787     3.808189523282
Pd     0.140718102448     1.425765098817     0.208543010307
C     -1.112476070023    -0.607280264262     2.348879929899
O     -0.392815171043    -0.428305179036     1.195279695755
O     -0.579546251087    -0.596813605134     3.471132909239
C     -2.640773203710    -0.874371232689     2.175310041127
H     -3.066773816521    -0.627350749788     3.153386109330
C     -2.907499114900    -2.347814776575     1.918816057950
H     -4.002193192789    -2.531024903084     1.907662214664
H     -2.485717156811    -2.635886135692     0.933892044840
H     -2.446312212277    -2.968820222011     2.714910750102
N     -3.394796242178    -0.110806421247     1.173736275580
C     -3.128981853228     0.052885797375    -0.067582509359
O     -2.021989691016    -0.329419219959    -0.791928730482
C     -4.149162875645     0.747509102464    -0.859493166337
H     -5.072669226597     0.146003657806    -0.805257502781
H     -4.316178168796     1.736424440823    -0.402816720620
H     -3.811118987250     0.843024816470    -1.906708896720
N      1.377827470074     0.108333571164    -1.045077784347
C      1.482368830005     0.252907532819    -2.401284551775
C      2.476738424838    -0.410621362413    -3.094260844787
C      3.355672010636    -1.241238591010    -2.432869572808
C      3.201129523857    -1.406979399450    -1.081609335590
C      2.162159741928    -0.721019836198    -0.418109182900
H      0.784734067845     0.887353875604    -2.930987122065
H      2.555594032774    -0.281107370736    -4.160693824127
H      4.136948191622    -1.769130371149    -2.973086616381
H      3.821376535306    -2.068477568525    -0.511017823952
O      2.046444095428    -1.004430806843     0.869968864766
H      1.112070389326    -0.735815186354     1.227285513553

