# STO-3G

title

0 1
C      0.983243081443     3.967821694418    -0.731640603705
C      2.339629984625     3.650163676241    -1.045086809618
C      2.658339798662     3.078906770598    -2.279235485904
C      1.632379443850     2.802180288603    -3.224199963820
C      0.298267414101     3.095937676140    -2.930192841907
C     -0.043242957509     3.683072160944    -1.679102572810
H     -2.073200054248     0.589888873752     0.993343215298
H      3.116890302061     3.884626089494    -0.322760663783
H      3.692490688874     2.854099859725    -2.528112023253
H      1.889123293607     2.359059403488    -4.183647433021
H     -0.484244571554     2.880329566177    -3.652213611548
H     -1.054063498118     4.044734094848    -1.516321475350
C     -1.157588379523     3.465513547453     1.265352939562
H      0.760168182743     4.568019226372     0.142202805855
H     -2.098214686363     3.743053992889     0.778369552790
C     -0.820451516505     3.842037925124     2.513210641711
H     -1.479678952074     4.453657830134     3.118500774940
C      0.429797229721     3.411699278754     3.151470365760
O      0.653904866078     3.737853196010     4.346624751431
O      1.430741110798     2.827977238358     2.349925418229
C      2.558625236342     2.294859261470     3.056806154406
H      3.262644055075     1.831403111517     2.333292576454
H      3.097761360993     3.096173993028     3.611036049653
H      2.236244839880     1.500866390919     3.768910011702
Pd    -0.098287154214     2.126545874395     0.230933108404
C     -0.176077386124    -0.330234774803     2.073556809113
O     -0.793695420402     0.813988737169     1.693659201500
O      1.060687109265    -0.496768912570     2.086694889862
C     -1.241420254840    -1.411046477084     2.484247633974
H     -1.904862688891    -0.919842412184     3.215001018136
C     -0.613459807885    -2.620522860824     3.132248549924
H     -1.409251988874    -3.316301229157     3.469901827868
H      0.022300956786    -3.141041533618     2.386857752906
H      0.003324964398    -2.317682105334     4.003108070386
N     -2.044551475290    -1.919332086013     1.360914445467
C     -2.649167009688    -1.238844687598     0.463134421766
O     -2.683178034381     0.142007488192     0.280158723969
C     -3.417899955423    -1.999664565975    -0.525430537739
H     -2.713979179926    -2.666314121553    -1.052020946725
H     -4.167439969501    -2.593658325266     0.023877517795
H     -3.907884994651    -1.309907639379    -1.235199916524
N      0.706172495245     0.469717067873    -0.915038453926
C      2.017094031469     0.105073448681    -0.769431916965
C      2.578180257034    -0.806598891904    -1.643074520283
C      1.819943441628    -1.368438699468    -2.647717993190
C      0.501407289233    -1.005908702959    -2.748643534285
C     -0.029830409063    -0.081149148839    -1.825361096512
H      2.619082006307     0.555858016148     0.010785076700
H      3.612784284215    -1.082478218591    -1.526961147129
H      2.254044090288    -2.088672688483    -3.335839280015
H     -0.148320447431    -1.418152920764    -3.493468086668
O     -1.331195716864     0.166025818012    -1.992400234102
H     -1.853264098180     0.414211505506    -1.160955359751

