# STO-3G

title

0 1
C      0.491988611690     3.752115949923    -0.901101557877
C      1.843453585420     4.135462269233    -1.144635971617
C      2.430980017304     3.891150547034    -2.390735750155
C      1.688086125266     3.236290454058    -3.409167942018
C      0.360887111100     2.850890699495    -3.186392522464
C     -0.258378961537     3.122515046244    -1.937197839532
H     -2.254793467793    -0.112961445859     0.352570066723
H      2.395930618033     4.648277197293    -0.361068727279
H      3.451365387302     4.210636643380    -2.587986991371
H      2.149596402338     3.047341820386    -4.375908391577
H     -0.209439499583     2.364966992226    -3.973706055714
H     -1.326938280028     2.966343608120    -1.823158168431
C     -1.326303742796     2.342977269305     0.947957592084
H     -0.016203090625     4.108149454830    -0.011627996093
H     -2.307820416147     2.257528493739     0.480384598791
C     -1.114131702956     2.778239883757     2.204877870162
H     -1.938305237362     3.093393692570     2.834673709527
C      0.218531888737     2.807982885589     2.822343962438
O      0.345781637756     3.275459121006     3.984120507870
O      1.341207083486     2.565455044334     2.003874432504
C      2.591922741112     2.455255547085     2.696478365080
H      3.402098900798     2.238367351312     1.968814790010
H      2.839882316631     3.403405075546     3.225839339998
H      2.558504135400     1.618162785422     3.432037961248
Pd     0.190001688705     1.532943453054    -0.077848981488
C     -0.483367864053    -0.721453870569     1.899876020564
O     -0.705839448489    -0.279691554050     0.618040511972
O      0.469227335474    -0.318950623621     2.588260080063
C     -1.556780357283    -1.713323829866     2.443577916500
H     -1.219363762104    -1.956360833144     3.456500871844
C     -1.607585520994    -2.997951173619     1.636418283618
H     -2.295803270973    -3.716090242656     2.128921652427
H     -1.990403607823    -2.781604976460     0.617695225897
H     -0.597874857346    -3.452410705788     1.566277845588
N     -2.931879972075    -1.211366359070     2.560130403475
C     -3.614571366434    -0.536095493352     1.709860273150
O     -3.251032902958    -0.022481223434     0.491643038063
C     -5.006991506266    -0.265667775261     2.080752495713
H     -5.508365954059    -1.238039679110     2.220402475036
H     -4.993066902904     0.295870495177     3.029563540677
H     -5.500837710234     0.318545525075     1.284321681516
N      1.778989902900     0.373237221105    -1.060430376543
C      3.039206608572     0.883150332440    -1.218796146624
C      3.968795740190     0.210309360400    -1.987362796805
C      3.642127147441    -0.983425120981    -2.593547499347
C      2.386075741315    -1.490978967576    -2.390727945709
C      1.475267051389    -0.776561003805    -1.584801146174
H      3.310351919224     1.812032421735    -0.734754150531
H      4.955129369986     0.625491097442    -2.112087964496
H      4.367470490357    -1.516894327933    -3.202156030213
H      2.072867391218    -2.426745337361    -2.808927678592
O      0.308476430884    -1.382358603784    -1.408201190768
H     -0.218272323579    -0.995680965853    -0.616532823378

