# STO-3G

title

0 1
C      1.560690224725     3.814355678950     0.377206762135
C      2.618024841772     3.424182065828    -0.494822816921
C      2.514058607379     3.648201426708    -1.870977667473
C      1.350261199492     4.261079848908    -2.407198859418
C      0.288701097522     4.622636764455    -1.567295708470
C      0.387781264954     4.408948688503    -0.166539256310
H     -2.782733669914     0.704719712984    -0.515634647433
H      3.511567253623     2.970362004864    -0.073476143348
H      3.331113703441     3.367039582640    -2.531262175199
H      1.288939484493     4.455420369627    -3.475577609326
H     -0.599252838331     5.097580581169    -1.976013210835
H     -0.371506278224     4.814450361582     0.494104338871
C     -0.483658128066     3.006426983308     2.491066155330
H      1.725756561411     3.822263686737     1.449474503003
H     -1.407238435524     3.577065642774     2.383246572307
C      0.141895708125     2.789508812110     3.665022190534
H     -0.229641001614     3.216984562460     4.588800073863
C      1.326798289239     1.930469414672     3.792309675472
O      1.839658823717     1.751043125107     4.927296700207
O      1.948780792125     1.458044736960     2.619766244284
C      3.070867048174     0.585982638911     2.815183159998
H      3.463667928772     0.261102354299     1.826940854194
H      3.888493748777     1.105156005504     3.364859492808
H      2.767677150199    -0.327372828742     3.376254133806
Pd     0.057742122670     2.053771667038     0.829664986477
C     -2.024174792268     0.198674413972     1.544606679145
O     -0.725309234652     0.308312011526     1.770216140532
O     -2.737046414602     1.195663647398     1.195381479155
C     -2.632184513484    -1.230147587067     1.465829268220
H     -3.710985192608    -1.121976871142     1.647215761402
C     -2.054769546988    -2.196927614293     2.471867414724
H     -2.610943025286    -3.155776950631     2.420502861679
H     -0.992077696480    -2.395964993818     2.222858384756
H     -2.131028988739    -1.781536959122     3.497355763160
N     -2.412821628332    -1.824771613008     0.139536263707
C     -2.413294811500    -1.210809353663    -0.987242690700
O     -2.598695231249     0.120700907165    -1.300054171743
C     -2.199324797628    -2.031425744734    -2.184000537570
H     -2.055468268370    -3.085983365989    -1.886418210487
H     -3.092366327360    -1.927334664156    -2.820589764793
H     -1.303838336581    -1.651665703203    -2.701673361724
N      0.516366977830     0.713508063442    -0.859924347106
C      0.317803063260     1.085213883529    -2.161966342656
C      0.844448167302     0.321516751797    -3.186988947976
C      1.544873729436    -0.832692999816    -2.910722439721
C      1.673660615241    -1.215333663565    -1.601394878689
C      1.108655012068    -0.409963326175    -0.590536947842
H     -0.244557917590     1.981462565913    -2.387481242154
H      0.693697149480     0.632337886648    -4.207311235568
H      1.956869962600    -1.439925205294    -3.712194597169
H      2.159953709660    -2.126434594861    -1.316283754057
O      1.223970274092    -0.909387178840     0.637651603794
H      0.542195766096    -0.494797384841     1.268776794200

