# STO-3G

title

0 1
C      1.348505093850     3.118808374006    -0.913866011932
C      1.954033349583     4.311451498906    -0.467828525101
C      1.360894581869     5.557690460428    -0.747787194340
C      0.158373966931     5.614760921256    -1.480753702303
C     -0.444301621009     4.425945690091    -1.937716932037
C      0.151726240454     3.180781020373    -1.656076710081
H     -2.615423518425    -1.275001474650     3.258723107054
H      2.879324124690     4.256477986974     0.102070104287
H      1.832830107779     6.473935777563    -0.401277546253
H     -0.300764474607     6.576035361581    -1.699063822102
H     -1.367077366694     4.469497820672    -2.511261256196
H     -0.306363641950     2.264429661458    -2.018585083181
C      1.894451887262    -0.788313864619     2.331842817554
H      2.858234768525    -0.526956440242     1.901994501711
H      1.729652787770    -1.819812922457     2.626197054390
C      0.968339837760     0.182908828827     2.700254625732
H      0.081439647890    -0.111858643328     3.238812166889
C      1.183508227349     1.633845809315     2.611974102197
O      2.027853276487     2.072585039546     1.785627982981
O      0.206206775350     2.480123655261     3.159137420197
C      0.356929926908     3.882525173699     2.898770061597
H     -0.446614569781     4.440435805201     3.427161152363
H      1.338305797119     4.254387170834     3.271106958709
H      0.261201374191     4.096242245864     1.811229966542
Pd     0.665247576266    -0.513744505140     0.453383052627
C     -1.042834529509    -2.471330116006     3.056324586901
O     -0.027173867938    -2.997333928877     3.537856975064
O     -1.941355833388    -1.786284325006     3.827894401466
C     -1.377183973112    -2.402562166438     1.533894282600
H     -2.440018942624    -2.657399407869     1.405623300052
C     -0.538528256963    -3.328488732755     0.686474631872
H     -0.807726997950    -3.203324525244    -0.382853342361
H      0.536612401617    -3.100291750997     0.818845630507
H     -0.721617436027    -4.381028514615     0.986635158750
N     -1.173487424019    -1.030404882545     1.031980047347
C     -2.131090792379    -0.121213638314     1.263332485327
O     -3.142996406967    -0.324165745315     2.017047999205
C     -1.996244935823     1.162072061620     0.557389579381
H     -1.988542450499     0.951415228854    -0.523868393959
H     -2.865979002670     1.790693163488     0.820478715807
H     -1.067817958191     1.654687688648     0.880555563575
N      0.481697352233    -0.591300473519    -1.603148159084
C     -0.366392056933    -0.680805632179    -2.665391315863
C      0.080479651153    -0.290434434742    -3.915883230479
C      1.379226454103     0.155112393637    -4.102368407283
C      2.217769518624     0.224822575344    -3.014817451148
C      1.722625454617    -0.176065995161    -1.760818772785
H     -1.381048072279    -1.035011450754    -2.523738089993
H     -0.589056571926    -0.356804131883    -4.758518934935
H      1.728450263511     0.444729143891    -5.090184226741
H      3.237405382415     0.546620925823    -3.088284144594
O      2.458266664453    -0.096704893056    -0.679599616900
H      1.818634036313     2.162951516797    -0.681225635351

