# STO-3G

title

0 1
C      0.882408697344     4.168658949471     0.312341381628
C      2.022078136087     4.928339120542    -0.050673050479
C      1.910266401234     6.051022549357    -0.888626504028
C      0.650106072859     6.440472336164    -1.380295298539
C     -0.493796325011     5.697114469401    -1.021199263751
C     -0.382297245054     4.576730106435    -0.183886442103
H     -0.570449273737    -1.040950045566    -0.735160319698
H      2.999331604529     4.635088886537     0.330090626480
H      2.797916412246     6.621383750505    -1.152276498707
H      0.557254703078     7.309000055952    -2.027985474284
H     -1.471147996592     5.993605532345    -1.395476189985
H     -1.279173078838     4.019728044942     0.074646660590
C      1.071083204992     2.999192919937     1.205256285892
H     -1.068070392381     1.317448746329    -0.620109238544
H      2.078574966167     2.903566453528     1.612763282654
C      0.054199612056     2.195135139446     1.746859448052
H     -0.978014200925     2.388312099819     1.493089587888
C      0.229718390041     1.346592846588     2.935780684877
O     -0.765428124816     0.703384939978     3.360792080213
O      1.532135941704     1.048732800844     3.369588296550
C      1.634686461577     0.133827895014     4.471358633927
H      2.705394961537    -0.016373361919     4.728856107164
H      1.112993659578     0.532748251752     5.370509764472
H      1.208121929341    -0.861235159546     4.208950881910
Pd     0.947928481919     1.287918870257    -0.134747766927
C     -0.081840354992    -2.257033614915     1.970561130611
O      0.950496312755    -1.465415103664     1.545015289766
O      0.098368483800    -3.155177410232     2.802018725072
C     -1.497855966453    -1.967577409450     1.373458642537
H     -2.147510404840    -1.827935486142     2.250257338110
C     -2.012475222300    -3.155554424918     0.589197042240
H     -3.034323997372    -2.942979356862     0.214996011234
H     -1.351610773727    -3.337996144209    -0.284704099148
H     -2.038700132823    -4.062673814839     1.228203256283
N     -1.455143368931    -0.821964784023     0.463370009848
C     -2.279266739113     0.168984125097     0.418651275187
O     -2.065507842499     1.235512036954    -0.369719717913
C     -3.509195190514     0.230972826185     1.228273564629
H     -3.225695156442     0.276635177330     2.293753229763
H     -4.071548477306     1.141281587089     0.953570738929
H     -4.117663747480    -0.662773601177     1.007240621728
N      1.451899068651     0.236205396553    -1.870835751466
C      2.475350967716     0.766852899492    -2.611246150927
C      2.933515307661     0.111072496923    -3.734494246533
C      2.361490753052    -1.078099402270    -4.130355567011
C      1.333965588234    -1.583076595768    -3.380681485399
C      0.891945114280    -0.881543856572    -2.237074720882
H      2.930535837968     1.702745925095    -2.307826734223
H      3.740478149908     0.536266668616    -4.308587244433
H      2.713390308191    -1.599767436180    -5.016397789461
H      0.834751251254    -2.497151658510    -3.632883095536
O     -0.110737727973    -1.458608137018    -1.608593971658
H      0.705441939135    -0.705213695645     0.939020449242

