# STO-3G

title

0 1
C      0.369954918086     3.275392200565    -1.551787768003
C      1.649570511642     3.818429244568    -1.784374615282
C      1.943103929147     4.424344216999    -3.023243365886
C      0.954409583512     4.491382327541    -4.025661059701
C     -0.328346304508     3.956112292752    -3.787475995973
C     -0.621421821085     3.347236096374    -2.550990522527
H      0.136359008807     2.796802352201    -0.607999653583
H      2.408727230436     3.778222018752    -1.005302748909
H      2.929107906079     4.849013775754    -3.201017985008
H      1.178080438883     4.966085135583    -4.978889103703
H     -1.094585094512     4.018251421702    -4.557531270690
H     -1.604006184101     2.926956686063    -2.353359648914
C      1.572972429954     1.562241136891     1.479679521687
H      2.334054604365     1.113596646318     2.111462693987
H      1.803995840922     1.620571671428     0.418569593005
C      0.374677430596     1.971496006682     1.953206198183
H     -0.380048312634     2.351827986669     1.277739080591
C     -0.042825260017     1.883326978114     3.360235368523
O     -1.250404732586     2.111735064854     3.644145497929
O      0.899639102146     1.569315520244     4.355581480179
C      0.373477640089     1.367230541161     5.674246780095
H      1.204313139559     1.110253789544     6.365410743465
H     -0.123141295444     2.289925728512     6.049887742473
H     -0.352824880653     0.522641216587     5.683926771939
Pd    -0.421572730937    -0.170126180841    -0.568286856282
C     -0.690731916923    -1.490924539792     2.923706812207
O      0.577598050343    -1.406103514947     2.433181428545
O     -0.896397732304    -1.593344726971     4.140299244812
C     -1.892144430804    -1.462003107785     1.919159007160
H     -2.778465916827    -1.296557678745     2.546790891006
C     -2.046920744275    -2.783520267999     1.197937587634
H     -2.952517768983    -2.755511811744     0.557055148662
H     -1.160747593404    -2.968378194838     0.554880528554
H     -2.149414911073    -3.611592541387     1.930305849771
N     -1.760430084836    -0.437928141287     0.904485382674
C     -2.507311472591     0.579340719978     0.557254505625
O     -2.072636713191     1.241079204000    -0.501310531917
C     -3.717953135592     0.991069449384     1.278631051785
H     -4.440394852602     0.158944698291     1.251566302644
H     -3.427100420960     1.237748308423     2.315702391978
H     -4.137028314667     1.884322047111     0.781200467014
N      1.187950892849    -0.041551702308    -1.912300687721
C      1.776006017693     0.587817604471    -2.971098882795
C      3.081086672320     0.266423168898    -3.307495780310
C      3.785952120427    -0.686267852525    -2.590510148689
C      3.165060875297    -1.310205057238    -1.534862295401
C      1.839512758425    -0.948388246712    -1.235203340972
H      1.226544956787     1.324838830638    -3.543489714788
H      3.546142137496     0.767522861714    -4.140430111062
H      4.809163037898    -0.936040901706    -2.858126996980
H      3.643850691556    -2.056895279822    -0.935009518606
O      1.191270967368    -1.497431303432    -0.220644141337
H      0.745972012568    -1.391369706446     1.451628214273

