# STO-3G

title

0 1
C      0.125843194340     3.197332853346    -1.518159347920
C      1.392890305821     3.797559521467    -1.375070669956
C      2.039742876689     4.353603690233    -2.497814437880
C      1.415369564536     4.313463136410    -3.761138209217
C      0.143743499150     3.719767237156    -3.900690957237
C     -0.501490398443     3.160178498721    -2.779664625951
H     -0.373022344204     2.761571062775    -0.660636139665
H      1.866796384724     3.837617416720    -0.396106184991
H      3.015166861962     4.823180408587    -2.386579049577
H      1.910127935460     4.750514838011    -4.626198941698
H     -0.341929412654     3.698690190830    -4.874192032977
H     -1.479331122272     2.694694814479    -2.872464631431
C     -0.841528575315     2.365767285882     1.945626756378
H     -1.328076927616     2.706386875430     2.855068253060
H     -1.428502530544     2.427684899096     1.033675081045
C      0.410104661224     1.855821384616     1.936692813595
H      0.843185259424     1.494446454730     1.012000955452
C      1.261542269528     1.689962172242     3.125741189131
O      0.925101958409     2.212488457733     4.223015423845
O      2.510893960945     1.062976598607     2.968770234623
C      3.278038409424     0.894062749138     4.168682365029
H      4.232359426669     0.379568400351     3.926693598024
H      3.519294192278     1.880185736395     4.626632519804
H      2.722809553297     0.270186206188     4.906046369730
Pd    -0.695372751278    -0.218560630599    -0.571611465252
C     -1.768046410175    -1.089514531301     2.862559406670
O     -0.414785256968    -1.045598192720     2.711104517935
O     -2.292282706251    -0.919994602877     3.970646731709
C     -2.662348715453    -1.377470733445     1.605429845061
H     -3.693809284274    -1.247164407374     1.959920925582
C     -2.495231353306    -2.794251534737     1.100766793854
H     -3.208910141057    -2.981399349120     0.271789363270
H     -1.462975556157    -2.942547684868     0.719937786642
H     -2.693575470561    -3.519135223534     1.917839450600
N     -2.368483001611    -0.492970922746     0.498606892052
C     -3.057423873020     0.413937910406    -0.143129046897
O     -2.397350863227     1.016292406996    -1.117384767052
C     -4.442260119009     0.773230610518     0.186757006488
H     -5.070656109443    -0.124331754240     0.059661656795
H     -4.464251852751     1.131832440679     1.230162625673
H     -4.771399452056     1.573186251105    -0.501432505083
N      1.229054263238    -0.033003728592    -1.406445295995
C      2.060468332134     0.579244644665    -2.299393617252
C      3.426677470552     0.368733489886    -2.204601444510
C      3.952278412446    -0.453130059597    -1.221171973558
C      3.090419507624    -1.065266400658    -0.343044689639
C      1.713777425212    -0.817691476324    -0.482811863598
H      1.655143459770     1.216251739781    -3.075669142484
H      4.082516981084     0.859025400499    -2.904777769369
H      5.024837337553    -0.609935435340    -1.145075072583
H      3.421383752794    -1.703487480848     0.450189385942
O      0.830254330267    -1.350807735505     0.348043100764
H      0.004360663451    -1.180570621263     1.815574768271

