# STO-3G

title

0 1
C      0.034056216343     3.305729941819    -1.354010090800
C      1.274799009533     3.950152640859    -1.176190219753
C      1.937225504864     4.521256130940    -2.282147934125
C      1.354884873459     4.452960216307    -3.563904096081
C      0.109221779305     3.815479544579    -3.738885985973
C     -0.551035515146     3.240607737913    -2.634679123338
H     -0.480403985097     2.853887669794    -0.513751224563
H      1.718099553737     4.013341510765    -0.184378702935
H      2.892712701473     5.023545195104    -2.143981202236
H      1.862075594695     4.900818739791    -4.416154349292
H     -0.344096072956     3.771143721508    -4.727137770085
H     -1.506632665011     2.737409068613    -2.754691677193
C     -0.539936653085     2.190803474820     2.130115518775
H     -0.937775839027     2.390476212815     3.120787516688
H     -1.237440960237     2.298695535113     1.303020504371
C      0.741881823408     1.809999192185     1.914320601618
H      1.081546989217     1.596848020979     0.910720744837
C      1.758501102028     1.629388893316     2.964820392162
O      1.478392218331     1.887768098071     4.166193113099
O      3.050198799101     1.224312285037     2.586051203459
C      3.984393278019     1.029613950306     3.656741573567
H      4.961224240619     0.705348657464     3.238317060918
H      4.143392235938     1.976651043438     4.220811564581
H      3.625406530622     0.239288996305     4.354783846946
Pd    -0.661471215811    -0.256208553094    -0.353991391164
C     -2.719303887066    -1.253293061779     2.927639048187
O     -1.694662394169    -0.372457285193     3.165482891837
O     -3.367659601978    -1.759697065710     3.847060925553
C     -3.019745200119    -1.567904382058     1.428403917862
H     -4.113836206017    -1.652841806328     1.358153997390
C     -2.413059450636    -2.889403361853     1.017129420413
H     -2.680401170173    -3.114519995251    -0.036113948242
H     -1.305681886414    -2.839307607553     1.100751654966
H     -2.790669274823    -3.706441179955     1.667465743111
N     -2.481303461041    -0.561028935694     0.536604954363
C     -3.071035221126     0.356747652142    -0.192566251633
O     -2.268625400251     1.032183306287    -0.988632559408
C     -4.512420808361     0.639330598772    -0.145853861272
H     -5.054633116838    -0.263606441829    -0.474032471498
H     -4.778733254267     0.913904156442     0.889114779284
H     -4.727975798813     1.479642192611    -0.831466514040
N      1.225186931808    -0.005455731538    -1.172446679784
C      2.024223863753     0.640550439587    -2.069644650289
C      3.384069288640     0.376254570265    -2.073943222126
C      3.934848265055    -0.534242248071    -1.186330482657
C      3.104545079462    -1.183840599777    -0.305000127410
C      1.731379481536    -0.881643214853    -0.338096280693
H      1.600147627800     1.345882094907    -2.772542216919
H      4.016380295405     0.893427314202    -2.776242602692
H      5.003100799300    -0.732588947832    -1.188468210843
H      3.454848303021    -1.893574472305     0.415375225318
O      0.877255685169    -1.443618077592     0.492409755372
H     -1.254321012353    -0.019162553172     2.355379819091

