# STO-3G

title

0 1
C     -0.221610907194     3.166542201719    -1.543495393865
C      0.900376870732     4.000317879149    -1.362815054022
C      1.443227958035     4.699691210757    -2.459890566551
C      0.860212167347     4.569314919973    -3.736278132363
C     -0.267102936434     3.741267033681    -3.914252798561
C     -0.807388896000     3.038463761295    -2.819118479353
H     -0.637196375344     2.604393516826    -0.713259100450
H      1.349168300352     4.111766472418    -0.377367972389
H      2.307303468435     5.345871518933    -2.318825102326
H      1.274922469905     5.114829141804    -4.581490349072
H     -0.722204053233     3.647440147560    -4.898116523388
H     -1.667976021568     2.386992655790    -2.942107571971
C     -0.231463375150     2.597954294272     2.057880497191
H     -0.856406779089     2.543858876805     2.945732486051
H     -0.571921982965     3.270756876794     1.277695611704
C      0.920691135949     1.896194642934     1.926971543152
H      1.529290632997     2.003391895173     1.039415569688
C      1.442725003091     0.943812589766     2.921456586765
O      0.679049618021     0.508812289530     3.826472267538
O      2.795446664430     0.566209028325     2.857434362968
C      3.185896298644    -0.495080597586     3.738854679085
H      4.266470924487    -0.710789342320     3.599430179266
H      3.021414199610    -0.209451652076     4.802642206679
H      2.613784633341    -1.423260858580     3.509119626136
Pd    -0.370847157659    -0.231055125630    -0.380267045820
C     -3.058237405813    -0.532523408561     2.872629213547
O     -2.474876578036     0.717003183953     2.901747818434
O     -3.930237989989    -0.862309398140     3.677671236988
C     -2.562668647316    -1.453947198916     1.712494657032
H     -3.400911115980    -2.125237589211     1.479879639542
C     -1.381157706563    -2.294656737365     2.132957082203
H     -1.082665362670    -2.965168033204     1.300275057339
H     -0.516302792234    -1.643474842707     2.383406590417
H     -1.641329227657    -2.911442697162     3.018418034468
N     -2.137450069176    -0.674561596419     0.562776750311
C     -2.855143737172    -0.062340617341    -0.352141203796
O     -2.157027867745     0.542492570788    -1.288214542360
C     -4.325010303276    -0.027499590372    -0.356019808696
H     -4.698109969972    -1.062827822998    -0.431412487394
H     -4.666572986579     0.453883411874     0.576551996960
H     -4.659748276106     0.560341244984    -1.230498108563
N      1.430138409599     0.191716754786    -1.289931846789
C      2.083084639588     0.829859151944    -2.302618151535
C      3.468614239819     0.832648638333    -2.313379489900
C      4.188902772682     0.195182868034    -1.315652287948
C      3.503460835347    -0.446270519895    -0.312061268199
C      2.097420052283    -0.422593864207    -0.344431955923
H      1.524694612055     1.325950172767    -3.087049110268
H      3.985659782613     1.343168111705    -3.108699085234
H      5.275344025625     0.207631854192    -1.323049520066
H      3.986074017004    -0.937931850683     0.506896872382
O      1.368919485869    -0.970941262239     0.606789289540
H     -1.749586677840     0.818218969934     2.239215026366

