# STO-3G

title

0 1
C      0.369052049102     3.494483837888     1.000773666860
C      1.735250408707     3.895332452458     0.845592767878
C      2.134591744801     4.680064170880    -0.266074653918
C      1.190810792286     5.062163920058    -1.227664422763
C     -0.160008504806     4.648244059779    -1.103810900839
C     -0.566920046621     3.869287209674    -0.015376014521
H     -3.515953473937    -1.342917472149    -0.301596467763
H      2.447678188974     3.697334986338     1.644743298209
H      3.171890431884     4.993039185544    -0.352518146303
H      1.491477844269     5.682595046439    -2.068725275298
H     -0.886674026404     4.939960260532    -1.858126952702
H     -1.594785253383     3.533486455533     0.088646501065
C     -0.088201850287     2.780328506721     2.288708629086
H      0.261103957844     3.324096228266     3.172410644984
H     -1.176303776839     2.721556252044     2.297277494308
C      0.483833344291     1.354579299105     2.165748240251
H     -0.292652587832     0.613292624098     2.042654036512
C      1.583463361298     0.868946245590     3.021196749267
O      2.529412142918     1.648010055365     3.304779044279
O      1.673589485955    -0.510443094433     3.265491012416
C      2.825772055358    -0.944513212479     4.002011902989
H      2.780936955859    -2.046681081501     4.140543776206
H      3.763158585574    -0.704221220959     3.450258310757
H      2.856250278222    -0.468952453792     5.008728131970
Pd     1.191722225049     1.536485848210     0.244236525713
C     -1.288495484331    -2.372308560557    -0.460494158397
O     -2.209828141151    -3.001753055715    -1.014399968821
O      0.020642113336    -2.626992150612    -0.646112322497
C     -1.615118991605    -1.241108800367     0.549770853411
H     -0.862678477132    -0.454238743265     0.488643443863
C     -1.677801084211    -1.777798755282     1.966676105990
H     -1.976266337007    -0.969679065388     2.665557643018
H     -2.445641879921    -2.578657835980     2.017268231900
H     -0.691139523359    -2.184614864254     2.271403619108
N     -2.923423757389    -0.693475021712     0.209162754828
C     -3.246563806271     0.602316563397     0.382664742529
O     -2.506029915090     1.469317784130     0.920168577652
C     -4.584262301867     0.990466622700    -0.105910539711
H     -5.328500381888     0.375277000496     0.427779290391
H     -4.742087165392     2.062524172126     0.101582896667
H     -4.624544344762     0.791170295897    -1.191014911056
N      1.828924875111     1.196334733742    -1.858435581778
C      2.188414702040     1.714661481118    -3.069739652792
C      2.475545001915     0.860218208562    -4.119157673468
C      2.399977892356    -0.510657695087    -3.955229696750
C      2.039951322421    -1.006480821372    -2.726206203890
C      1.757549256740    -0.093508450733    -1.688885006400
H      2.244682781787     2.788790824901    -3.203792322879
H      2.754948377677     1.272106678126    -5.075101093870
H      2.620445422680    -1.181463548887    -4.781627197148
H      1.961480504027    -2.059386159891    -2.540218564900
O      1.394996953561    -0.546689406805    -0.495839605765
H      0.649470607745    -1.809280140205    -0.452293998693

