# STO-3G

title

0 1
C      2.246421197116    -0.343975377231    -0.652968928201
C      3.597572835900     0.009029002834    -0.389082405086
C      4.177336876802     1.099738239908    -1.046480140667
C      3.418512678180     1.861768629476    -1.974745071968
C      2.087816339689     1.524017048044    -2.244752326667
C      1.484495888919     0.416134009111    -1.587367573412
H      1.819027488868    -1.247941916286    -0.234177364627
H      4.175302361894    -0.582194416484     0.315263261133
H      5.214275410627     1.365271311742    -0.855665089555
H      3.874362664074     2.710538853179    -2.479028364629
H      1.514918227021     2.099699954393    -2.966999112655
H      0.503162376224     0.067418890547    -1.889997360231
C      1.821586487450     2.463748172898     1.445312797374
H      2.720004784828     2.531226837890     0.840346684962
H      1.924239828249     2.036982286601     2.438611263128
C      0.618628078962     3.032179303758     1.028831656312
H     -0.237679327355     2.995581501083     1.687105061453
C      0.438226426111     3.853005261854    -0.182231988228
O      1.435145157523     4.173540011486    -0.882394601107
O     -0.853653744144     4.299193770198    -0.509401609017
C     -0.955417890460     5.128407892956    -1.675657134531
H     -2.017837191188     5.415171965595    -1.831582053125
H     -0.359425840461     6.060999535228    -1.550437333252
H     -0.603858049193     4.584170215080    -2.581288364395
Pd     0.542979040836     0.749917349669     0.695641685588
C     -1.740306436043    -0.792159616323     0.104009208682
O     -0.370096854428    -0.998550255772     0.237376256567
O     -2.445963357125    -0.686437098082     1.302968182836
C     -2.494707331163    -1.707026912913    -0.929971248112
H     -3.428943731180    -2.036340213509    -0.461153955055
C     -1.708965483987    -2.907974323140    -1.400719426512
H     -2.328992441728    -3.498738897188    -2.105885088567
H     -0.796818353706    -2.565377392342    -1.930057187358
H     -1.424009451119    -3.541236150201    -0.536032567813
N     -2.791291623095    -0.864618700347    -2.116660091244
C     -2.436731112140     0.337734844832    -1.833812754710
O     -1.853344987785     0.632679886198    -0.632161000116
C     -2.632073726826     1.416515218031    -2.798954561543
H     -2.067363403331     1.154609077906    -3.709302148603
H     -3.711548541349     1.466962568092    -3.019039788404
H     -2.272496046604     2.363845225617    -2.360005402109
N      1.267699868854     0.043568409643     3.564850384728
C      1.799198148717    -0.472445615333     4.715945597306
C      0.998003795768    -0.653039711872     5.828689808301
C     -0.339191937560    -0.317529577150     5.790160183250
C     -0.848489075525     0.191968619435     4.623803407306
C      0.014857869733     0.350762049840     3.512842415950
H      2.850213647889    -0.733913216167     4.753129345667
H      1.426747942062    -1.057752352250     6.730506101279
H     -0.972669192215    -0.452975229932     6.662749294847
H     -1.875088325493     0.481637459208     4.529666791689
O     -0.582368581195     0.847380754281     2.422098847506
H     -1.909804944320    -0.103142762740     1.917811337473

