# STO-3G

title

0 1
C     -1.631901362289    -0.118912766314    -2.606412056318
C     -2.815957832227     0.405553798016    -2.048177612857
C     -3.985704468578    -0.379335423530    -2.015897728496
C     -3.974005165079    -1.688723145855    -2.539099774173
C     -2.791596160581    -2.211476200364    -3.099562945855
C     -1.621830242331    -1.425388570351    -3.134874077795
H     -0.738990924244     0.500095222006    -2.619802725894
H     -2.800620106246     1.414954065735    -1.647249026670
H     -4.900537336988     0.028522331979    -1.591109546385
H     -4.878442404334    -2.293022315978    -2.516116846448
H     -2.782342421010    -3.219298452806    -3.508862748883
H     -0.712945416307    -1.832095155698    -3.573962285303
C      2.085071953747    -0.278568925717    -2.234568859676
H      2.875014516204    -0.082598264664    -2.963480861050
H      1.139536423844    -0.443651224025    -2.757197721250
C      2.429961763678    -1.447765440399    -1.311472652434
H      2.609213905065    -2.361962466718    -1.874231805019
C      3.545351786165    -1.230036537196    -0.349664125256
O      3.890703680051    -0.042314958101    -0.077824425637
O      4.359961056311    -2.319367873638     0.014214122694
C      5.443836228228    -2.021293621526     0.904605788522
H      5.999345470847    -2.956423348463     1.131845773920
H      6.152579731492    -1.300352541546     0.438166261892
H      5.062744590635    -1.601089834760     1.862732252888
Pd     1.851149818717     1.351564457188    -1.055617254627
C      0.000316796609     2.534063239649     0.044507358791
O     -0.791907028842     2.707962389104    -0.978414678867
O      1.076171520394     3.210108774074     0.280739732423
C     -0.261412906099     1.235274730031     0.896324104999
H     -1.328741987186     0.987976995660     0.859666841433
C      0.213149288719     1.359261944242     2.327022535079
H      0.001722054961     0.424126382341     2.881805534167
H      1.309683081289     1.537956370324     2.340945441569
H     -0.302530649987     2.204575464089     2.827281289686
N      0.600164006586     0.229726295787     0.214890094884
C      0.378475887866    -1.030599176179     0.088035368275
O      1.191937158159    -1.882580743188    -0.566535041977
C     -0.818011520860    -1.681114965102     0.653149720320
H     -0.773047710667    -2.762888413732     0.430831248667
H     -0.821585726175    -1.527527695887     1.742314858361
H     -1.713664264766    -1.254499301371     0.170207632133
N      2.555600879734     2.584642414073    -2.521359646452
C      3.897736674507     2.647823055116    -2.777434711127
C      4.364085126523     3.424959553159    -3.816109838442
C      3.489808623391     4.154760355904    -4.590413075629
C      2.152784757349     4.093238260855    -4.298021581795
C      1.703652544620     3.297888655058    -3.219682555120
H      4.589341792130     2.067633288077    -2.176870406959
H      5.422148288364     3.462143369719    -4.017315564230
H      3.852398978177     4.770499318171    -5.409248145588
H      1.424894932069     4.650698694030    -4.853330449089
O      0.412631525273     3.347132769157    -3.030117354347
H     -0.111539437921     3.076286546035    -2.105496999587

