# STO-3G

title

0 1
C      2.879446070515     1.286551416408     1.471683311237
C      3.541369260076     1.924641182189     0.402915130503
C      3.975356406196     3.257708071492     0.541147078443
C      3.749734078629     3.954595625120     1.745831882919
C      3.089898879885     3.316195512378     2.814530997779
C      2.655503256133     1.982385484238     2.676832857735
H      2.546687358037     0.258649547089     1.355815305979
H      3.700301348495     1.379693630592    -0.523311645815
H      4.488215529523     3.748763880714    -0.283020880798
H      4.087017752601     4.983482362517     1.852232860129
H      2.917432718906     3.850412809567     3.746588259259
H      2.151441414420     1.491231711416     3.507952721074
C      0.200563722802    -0.864929493984     2.315623173264
H      0.498005461790     0.184838653599     2.236199603098
H      0.756931282884    -1.325513858499     3.138274887647
C     -1.312470824770    -1.024052172267     2.492331626007
H     -1.596645162415    -2.065922319583     2.345827142982
C     -1.925310181449    -0.542673203798     3.774755250963
O     -1.291803868889     0.286549686526     4.488333086313
O     -3.012868964501    -1.262179968139     4.309714960678
C     -3.516622485666    -0.790857565903     5.567107898556
H     -4.379687797806    -1.418583399990     5.875838570444
H     -2.735156661336    -0.859505360511     6.357362563552
H     -3.865023889632     0.263273540119     5.481262803872
Pd     0.696592832213    -1.757886115024     0.573252571633
C      1.292164085202    -1.117827590151    -1.702705983090
O      2.481911219906    -0.619681587659    -1.544600278224
O      1.009020535663    -2.384859029147    -1.686915615721
C      0.034037276849    -0.158975841961    -1.693481830547
H     -0.617223729172    -0.427415498719    -2.535353040482
C      0.402140277848     1.310621027293    -1.734300680001
H     -0.504354690083     1.942940626581    -1.795990619421
H      0.958135248988     1.582166369720    -0.812997828564
H      1.040985480940     1.517947496067    -2.617626273503
N     -0.584919646495    -0.461672810136    -0.368973233213
C     -1.702429350243    -0.083612235283     0.142273048301
O     -2.088264680470    -0.295197208247     1.413162943916
C     -2.734882759471     0.638561470470    -0.624180130751
H     -2.811857862600     1.652908772184    -0.197428203222
H     -2.496663574313     0.675088686400    -1.694980375218
H     -3.690266986321     0.102345616442    -0.482694516001
N      2.189178155893    -2.911389463468     1.375429014698
C      1.884872547413    -3.856423025179     2.317876043474
C      2.887432478827    -4.596398529993     2.905548221829
C      4.201569879773    -4.405068105359     2.543368894499
C      4.481174039254    -3.470300144971     1.582995271552
C      3.432275718400    -2.732283633941     0.990660468730
H      0.853512964603    -4.008747701813     2.614970706949
H      2.637680214756    -5.331390884055     3.653490803377
H      4.996827109640    -4.985710119720     3.003514579366
H      5.483059389145    -3.283545768293     1.249628988082
O      3.839893613330    -1.893144755702     0.078250500427
H      3.231213142574    -1.368416932393    -0.647147924195

