# STO-3G

title

0 1
C      2.428419620631     3.284625096369     0.689923699020
C      3.068842597953     2.097279922651     0.271419609450
C      4.454500802407     1.940237079363     0.451262311171
C      5.217960362071     2.964561126947     1.046179234848
C      4.585170460493     4.152060909561     1.459062442065
C      3.197664033186     4.310976656116     1.277731941328
H     -2.189380391334    -1.421756289262     1.750544009425
H      2.485809407147     1.302138071102    -0.190445777790
H      4.936115473480     1.020510136066     0.127126900427
H      6.289631286009     2.839450045146     1.182976430770
H      5.166475365229     4.949572540332     1.916616846412
H      2.714881619874     5.232845476131     1.598551219080
C      0.930680740565     3.462833434642     0.533523037102
H      0.616414773290     4.498441173108     0.692586197264
H      0.729538637418     3.371887584712    -0.651357592538
C      0.058852403462     2.448507346345     1.234156344755
H      0.579184114286     1.620349561494     1.700821072945
C     -1.186706626717     2.823932560681     1.923227404425
O     -1.886079354888     3.753644648148     1.441771204530
O     -1.647559587392     2.023760454799     2.980782529059
C     -2.957619043845     2.331610178799     3.476417378120
H     -3.210709773050     1.635197859876     4.304795664326
H     -2.999712233688     3.372497943952     3.870124565606
H     -3.721786803601     2.205249118959     2.675644332726
Pd    -0.324075231756     1.878926971676    -0.701365104610
C     -0.542256240608    -0.841754988540    -0.541000349288
O      0.867005870367    -0.560936672885    -0.317570013192
O     -1.382224808342     0.169163223395    -0.209549816922
C     -0.944307105516    -2.164773500988     0.203908517039
H     -0.092541430205    -2.853481321884     0.199647797634
C     -2.154843167217    -2.865914189844    -0.376488359814
H     -2.429470844512    -3.728503468599     0.264351586702
H     -3.005313866165    -2.156081620226    -0.419206368297
H     -1.929802587443    -3.228885924077    -1.399908085628
N     -1.262755959056    -1.804145463990     1.596446396179
C     -0.290751755924    -1.479428827689     2.480802741238
O      0.941089058973    -1.430293988789     2.202234338327
C     -0.707015798369    -1.169977686886     3.863230245473
H     -0.169793740077    -1.859627922785     4.535142750118
H     -0.421048054598    -0.125911309493     4.071579045502
H     -1.797588912718    -1.299438501048     3.978751721803
N     -0.402207191045     1.130309344016    -2.722579868717
C     -0.353977311255     2.016329747326    -3.765589327023
C     -0.423594387631     1.566708311387    -5.067283742131
C     -0.543059576247     0.221394446598    -5.333210072603
C     -0.589700099731    -0.645024245612    -4.275405811285
C     -0.514818173459    -0.144361842229    -2.954325130952
H     -0.260052868655     3.077234654068    -3.565471191540
H     -0.384222051592     2.274045334861    -5.879283798272
H     -0.598514185907    -0.143294588982    -6.355403807470
H     -0.680401728225    -1.704055899012    -4.410324611220
O     -0.572158248405    -1.121586754934    -2.049639299710
H      1.127663110815    -0.897340803764     0.587324538556

