# STO-3G

title

0 1
C      0.536162361356     2.483869694259     1.761275102253
C     -0.305201740790     2.850569429693     2.831402516436
C      0.201206697123     3.643981827414     3.882857589226
C      1.541711395821     4.073728654423     3.863745316598
C      2.378181932872     3.697834054489     2.794400366087
C      1.880467532572     2.901260191221     1.741818552513
H     -1.031756862280     0.524638237711    -2.635489001367
H     -1.342855908097     2.521416617677     2.861285509455
H     -0.452325142244     3.919045214940     4.708160862134
H      1.930774394774     4.686273731419     4.673635545414
H      3.418158181137     4.017256201439     2.777574475010
H      2.543268110253     2.592560404445     0.939604906979
C      0.378464322870     2.637323719658    -1.308635069104
H      1.278255846793     3.161789560704    -1.007033281584
H      0.494406217800     1.892207724201    -2.090928566003
C     -0.894632572240     3.092970346246    -0.929102402818
H     -1.774070251573     2.637982031592    -1.365960799740
C     -1.141852948540     4.341006843319    -0.187266727706
O     -2.312269632231     4.588601452132     0.203875691192
O     -0.064183974521     5.182757590798     0.137991567526
C     -0.360522701218     6.266732389778     1.028379745372
H      0.566809553522     6.848207141685     1.219004458940
H     -1.118771555653     6.950298856857     0.583864599506
H     -0.731179451987     5.882606170796     2.005738998908
Pd    -0.291974524670     1.347490233640     0.351846663354
C     -1.705770329778    -1.112327859408    -1.030610892407
O     -1.645985691231    -1.724315105054     0.097134603485
O     -1.376519964219     0.153349770915    -1.151338429253
C     -2.120801163878    -1.817582075114    -2.347569965017
H     -2.935539133325    -1.202827892554    -2.770445520937
C     -2.628940420575    -3.221491536654    -2.130001180415
H     -2.976169627972    -3.642531776432    -3.096244595728
H     -1.800505288903    -3.852599526818    -1.747190420254
H     -3.469217161266    -3.224720045606    -1.405720709507
N     -1.006660741597    -1.924970368050    -3.313903485925
C     -0.402741507953    -0.907860921453    -3.817374258151
O     -0.557830875696     0.424214793858    -3.526170764932
C      0.585977024861    -1.191349096072    -4.861227211411
H      0.065553140086    -1.719923673714    -5.677509810983
H      1.017789178709    -0.242584238968    -5.223021172825
H      1.366341295109    -1.837027707898    -4.423093453587
N      2.023516203458    -0.441632966521     1.363630654381
C      3.241602038390    -0.971910796118     1.696577114385
C      3.313809477625    -2.050836872763     2.561229748760
C      2.164006727943    -2.594847525748     3.097224745296
C      0.959754950946    -2.035690555386     2.752766890078
C      0.957151093667    -0.932771285356     1.868865419770
H      4.145944059281    -0.549789662218     1.274336169538
H      4.275899403562    -2.464499973798     2.814131548868
H      2.212316912716    -3.440416634138     3.778152681934
H      0.029638000243    -2.395482861251     3.143021813270
O     -0.268340198367    -0.410487677322     1.582454500366
H     -0.962382101885    -1.084190419371     1.034075654384

