# STO-3G

title

0 1
C      2.322755341441     2.896411235127    -0.672350794750
C      3.684653459342     2.719053559830    -0.991126391483
C      4.342347929443     3.659975894429    -1.810612102206
C      3.643979384765     4.773854501286    -2.316743439656
C      2.282052228810     4.944295658419    -2.003966182291
C      1.619937838211     4.011253785235    -1.177275518001
H     -1.215219361477     0.224613247058     1.569047761497
H      4.228128130534     1.847738756958    -0.631637312159
H      5.392144326555     3.515698571967    -2.056621944797
H      4.153532894771     5.496405944226    -2.949526853070
H      1.731741737142     5.796456181388    -2.397197758027
H      0.562181077162     4.150474632552    -0.958071945039
C      2.049567951934     2.280695495014     2.287628403794
H      2.026287692962     1.420899616763     2.951573598749
H      3.022788603396     2.689143329011     2.037607006986
C      0.877156989339     2.985423165920     1.969057667438
H      0.958640461441     3.910117249586     1.418130221714
C     -0.429877745286     2.772771460211     2.619810189891
O     -1.366466558568     3.562065237710     2.328799425232
O     -0.513645160283     1.916307026853     3.732333546159
C     -1.810743606353     1.803682170699     4.334565807805
H     -1.765382101214     1.079112434749     5.175003468841
H     -2.148035553937     2.785819316392     4.735749323134
H     -2.558575374598     1.430767709667     3.598112967295
Pd     1.385284682140     1.476456245699     0.373060828013
C      0.512288603317    -1.344337411726     1.277816212734
O      1.339113345400    -1.784193022746     0.411843615667
O      0.356950627038    -0.043763404354     1.498623501711
C     -0.467462110421    -2.247416958654     2.067542461725
H     -0.523459887931    -1.828500533616     3.086551711571
C     -0.006214793454    -3.681925681263     2.143876452218
H     -0.710715290856    -4.263317177186     2.773757571486
H     -0.005369281415    -4.115832946916     1.122027771807
H      1.012691607160    -3.741512796028     2.577702194422
N     -1.810358384039    -2.275295024898     1.450066350339
C     -2.510525103236    -1.223031903704     1.215237013597
O     -2.200384675249     0.097383665005     1.398091891607
C     -3.853158623386    -1.453777503893     0.674196880501
H     -4.403073420693    -2.075263456470     1.400093781330
H     -4.357386097612    -0.484034875425     0.522825942223
H     -3.739988624095    -1.990126850454    -0.283536521817
N     -0.533597766894    -0.586411934394    -1.997614134619
C     -1.572533696800    -0.440462422587    -2.876081963374
C     -1.499378513357     0.514738889996    -3.877540134643
C     -0.381029024296     1.316329497505    -3.998972981302
C      0.643588147449     1.141522498982    -3.103304547904
C      0.501991224905     0.149820060345    -2.109658917253
H     -2.451150401889    -1.067644023817    -2.780236544123
H     -2.322165457926     0.625950038045    -4.563964529191
H     -0.313534473384     2.064088924175    -4.784547001218
H      1.547712598414     1.715900229843    -3.146584013847
O      1.562863818923     0.045462899600    -1.242712729541
H      1.539987834439    -0.835971220183    -0.633895596239

