# STO-3G

title

0 1
C     -0.751911255154    -0.009388313276    -2.798730945099
C      0.015127829850    -0.590180429945    -3.828727096282
C      0.000617463681    -1.986666026401    -4.020020146538
C     -0.787602183660    -2.802143030102    -3.182254079859
C     -1.569933198475    -2.218761168540    -2.164501482312
C     -1.555902685957    -0.822042521784    -1.973459971121
H     -0.727377630052     1.062759793585    -2.631881221573
H      0.614641833934     0.043038445786    -4.479572318126
H      0.592151655298    -2.435439055769    -4.815180384789
H     -0.795332267686    -3.880652599749    -3.322936481011
H     -2.187096620853    -2.846461954673    -1.525901142103
H     -2.163180468153    -0.363967121310    -1.197358098731
C      2.627873173266     0.258463076368    -1.396740932923
H      3.647188317135     0.459283159912    -1.052088024369
H      2.573309196954     0.251486214937    -2.488188730001
C      2.052259410315    -1.036089875450    -0.834675542467
H      0.982081209192    -1.084139002913    -1.033965803974
C      2.668416272986    -2.333012573873    -1.260250607783
O      3.786026286515    -2.322958062505    -1.853073428791
O      1.877942735535    -3.500074004968    -1.238858375578
C      2.495802674281    -4.686483896807    -1.753877055251
H      1.784801223219    -5.535580786471    -1.669245589738
H      2.760597447675    -4.557964259455    -2.827469152445
H      3.411363181325    -4.937302355898    -1.172128503137
Pd     1.468120788990     1.819941951929    -0.878170916891
C     -1.466042409112     1.667666946709     0.894072616962
O     -1.627006219112     2.230317241896    -0.319303171073
O     -2.366466069703     0.991289165068     1.422734572931
C     -0.082737200206     1.771382604816     1.641356603699
H     -0.325511617211     1.406731586403     2.646033569497
C      0.484244352337     3.166759296999     1.786270505204
H      1.340308151970     3.140072352214     2.491973082259
H      0.852815452745     3.559078177192     0.823478290303
H     -0.289731554918     3.853379841603     2.188312041901
N      0.913760316906     0.940544536608     0.926217643204
C      1.422584995483    -0.158031915433     1.388952088821
O      2.161814456497    -1.013235346779     0.667128880054
C      1.267565169462    -0.576547893287     2.797085795352
H      1.863649445197    -1.493204070432     2.963263279308
H      1.647474145958     0.229218532945     3.445451127663
H      0.204153572788    -0.805824390411     2.984597178351
N      1.794752927886     2.938877539871    -2.575390325302
C      2.654261398787     2.989563304309    -3.636488666280
C      2.486474028150     3.959163626761    -4.605390931205
C      1.464916623472     4.884091767407    -4.511895054841
C      0.621274828836     4.823258921655    -3.431880792337
C      0.819071486732     3.819343497640    -2.461093418434
H      3.459452982368     2.268950178357    -3.719513849465
H      3.163539922727     3.991885997949    -5.443801598721
H      1.334554200986     5.646403792053    -5.275675308031
H     -0.187453998827     5.512668974406    -3.294740268052
O      0.023215298289     3.777681496038    -1.436679073195
H     -0.929710819161     2.858426717779    -0.735447490480

