# STO-3G

title

0 1
C      2.171779986289     1.637503749068     2.112938544065
C      3.214411335620     1.841876986852     1.185242738591
C      3.602317494662     3.154086984532     0.847370778759
C      2.952160647784     4.258931951208     1.434812340695
C      1.912003410028     4.052229761719     2.363419026074
C      1.522390626900     2.740281011845     2.702799294039
H      1.867470645714     0.621894985451     2.355813910626
H      3.703669637915     0.982253385415     0.731380223142
H      4.407450670781     3.312940765347     0.133095023693
H      3.255838492032     5.270793844944     1.174230971480
H      1.413571912755     4.904239169168     2.821147588702
H      0.717956526842     2.575873881490     3.416364907955
C      0.118647913829    -1.910151286154     2.497684882608
H      0.637418780748    -1.597017083138     3.410790553822
H     -0.008035876690    -2.998655806140     2.480891821566
C     -1.228242494533    -1.222411656170     2.321347771455
H     -1.707165686311    -1.609560591620     1.422602763448
C     -2.203335078618    -1.250263106358     3.457282568663
O     -1.796670254442    -1.542129234188     4.618265887531
O     -3.580783194470    -1.264419740982     3.156800722651
C     -4.464908932735    -1.344874414367     4.283181974304
H     -5.516983465762    -1.327811767813     3.927055545317
H     -4.302582826395    -2.291510156475     4.846571312438
H     -4.313087318792    -0.477742699218     4.965120145567
Pd     1.420417077086    -1.524391413218     1.006461942168
C     -0.796060769083    -1.316014484616    -2.003781495877
O     -1.392944913518    -2.084622746282    -1.016086123025
O     -1.010843034406    -1.496430628472    -3.208558886709
C      0.122802051338    -0.216074865854    -1.424681400380
H     -0.232723194759     0.724723212938    -1.874180042242
C      1.550536095028    -0.407671501165    -1.870145464132
H      2.204324780200     0.335665568103    -1.367461923549
H      1.897564139075    -1.428045032503    -1.616270558016
H      1.633568038823    -0.270117320237    -2.968478545722
N      0.080335198612    -0.244401778636     0.038925107114
C     -0.637799982985     0.555467895675     0.763246489082
O     -1.035025250872     0.254318302898     2.010296913195
C     -1.047027748400     1.896274430610     0.302504012456
H     -0.138190794048     2.437590307327    -0.015042395374
H     -1.780286927593     1.785981411603    -0.510885400261
H     -1.514909271051     2.435345767476     1.146954043036
N      2.953370987970    -2.562770392018     1.878297432039
C      3.205663151547    -3.372500244574     2.947614862253
C      4.489610842804    -3.833474937943     3.166445694267
C      5.523257625375    -3.481551285112     2.319275330763
C      5.251142787263    -2.665876545231     1.250584814172
C      3.929222808728    -2.209693469920     1.051791091029
H      2.402564802051    -3.652813790389     3.618981990069
H      4.684805590439    -4.470707242839     4.013258841873
H      6.532788640360    -3.842368550279     2.497036858392
H      6.003239099387    -2.348677169277     0.557680035655
O      3.663180917629    -1.430465924481     0.056082613597
H     -1.937911915314    -2.796624412101    -1.416826145261

