# STO-3G

title

0 1
C     -0.512069648250     2.248026239007    -1.724614032582
C     -0.805378498512     3.576573965657    -1.358984018443
C     -0.639136366161     4.619661702415    -2.292602293021
C     -0.181302206386     4.334215939994    -3.594217391367
C      0.107945798283     3.004576100500    -3.962434510835
C     -0.056773460411     1.963792214428    -3.027875592586
H     -0.620970682527     1.439683680335    -1.004270945282
H     -1.165684782162     3.799722893717    -0.356386015333
H     -0.867459263669     5.644798734031    -2.009242148100
H     -0.055244767030     5.138505326500    -4.315643651806
H      0.455471912181     2.780816106358    -4.968759274081
H      0.165636572993     0.936298217607    -3.310653334777
C      0.996297131469     1.376049089754     1.476567461936
H      0.631155989819     2.234525896894     0.906143165178
H      2.089763782578     1.331205636827     1.455643294577
C      0.489039617617     1.345287310163     2.910599654425
H      0.778832662019     0.401036235430     3.377920145194
C      0.872203511638     2.477205192403     3.814559628081
O      1.180932126798     2.222881829461     5.012391492308
O      1.175954241152     3.732665548497     3.246536495760
C      1.598101201453     4.748398874017     4.166845901138
H      1.789767461804     5.691469735765     3.612065562989
H      0.807581594190     4.944337505508     4.926279221588
H      2.538942912169     4.448953015677     4.681888777889
Pd     0.459260067349    -0.286136750273     0.473292497890
C     -0.972300042431    -3.128609591474     1.636969225078
O      0.149564417396    -3.347912349388     0.926068233730
O     -1.296598234171    -3.851849848908     2.594438259187
C     -1.895648898741    -1.895304374319     1.302322575297
H     -2.782117301526    -2.101949411971     1.912290610854
C     -2.338821677510    -1.789962543088    -0.141746171336
H     -3.158854653755    -1.046502589101    -0.219911367035
H     -1.515015481841    -1.450548803285    -0.793342700637
H     -2.711286089450    -2.771893271754    -0.501287854701
N     -1.216110064841    -0.627231105628     1.662872965445
C     -1.691316987406     0.253783087378     2.483982663161
O     -1.013726667279     1.332501241903     2.913298000649
C     -3.068239088304     0.190003036653     3.014967196778
H     -3.772602133164     0.138146767565     2.168920258162
H     -3.143567427642    -0.684725753347     3.682244732450
H     -3.270961853357     1.104048099556     3.604773793099
N      1.916657444138    -0.144810337796    -0.969049759726
C      2.830600672354     0.753218038425    -1.443912123449
C      3.546577165616     0.456075082099    -2.587199493051
C      3.351265715842    -0.737116094863    -3.255209167034
C      2.419113355459    -1.617946699060    -2.767317779316
C      1.702096425287    -1.280687465369    -1.600896932350
H      2.990229043848     1.692537179323    -0.927540268934
H      4.265986589217     1.167677466258    -2.958960412688
H      3.917119289731    -0.969115337197    -4.153716316255
H      2.206643972441    -2.553672759586    -3.244048458890
O      0.782500015524    -2.092604296677    -1.173040094029
H      0.373889041408    -2.821540426199     0.075909972577

