# STO-3G

title

0 1
C     -1.247240167889     2.366022902917    -1.144152099895
C     -0.772514195658     3.652721474839    -0.807269543898
C     -0.065120236637     4.415161971692    -1.754371828751
C      0.179458512743     3.888054001198    -3.040236818936
C     -0.299222356537     2.608400463801    -3.380770305310
C     -1.024206607073     1.851476910739    -2.438922579006
H     -1.838178082691     1.818011949762    -0.410912797231
H     -0.964611296594     4.050605589081     0.186350283747
H      0.283923713332     5.412953055358    -1.500328413879
H      0.725664463461     4.475524799111    -3.774863994898
H     -0.118545896207     2.204187606167    -4.374049561813
H     -1.410129891893     0.875988827415    -2.723721440904
C      1.098501827252    -0.102036980022     2.032475248844
H      2.150814333765    -0.005796417137     1.757577112798
H      0.862548362165    -1.144483080352     2.252245367156
C      0.701151668539     0.851115901289     3.156296700404
H      1.063751922978     0.467101765742     4.111478390195
C      1.093301367451     2.281090761772     3.024446808573
O      1.570351136710     2.884897724873     4.025149831950
O      1.187061228204     2.842927139513     1.732504457450
C      1.719379050863     4.174722110854     1.675802503937
H      1.752395259065     4.519492781688     0.621415931053
H      1.080048625522     4.879331098407     2.254821429710
H      2.756686049884     4.202871984783     2.080831257174
Pd     0.040168277339     0.428724663978     0.390235259820
C     -1.473466426878    -2.703414444557     1.212532966348
O     -0.190215049369    -2.825767443892     0.861601892871
O     -2.075754087907    -3.556598824013     1.895278609246
C     -2.251558485817    -1.373211259890     0.854701739035
H     -3.272176045558    -1.526302572504     1.229326608811
C     -2.324535907003    -1.108632190145    -0.630595569270
H     -2.943268340675    -0.208099886091    -0.817669245094
H     -1.313806678583    -0.970170031390    -1.059335325602
H     -2.805697871132    -1.970476824414    -1.139053545566
N     -1.559567315854    -0.234342808761     1.505236706924
C     -1.685606179470     0.076851605701     2.756566788601
O     -0.802489927379     0.822849712139     3.440059103468
C     -2.851112553599    -0.349756977843     3.555641854728
H     -3.765895601929     0.020116811010     3.064510789132
H     -2.839875373844    -1.450169571739     3.637478190405
H     -2.772806679433     0.087550464450     4.568850644958
N      1.689912895241     0.416639862999    -0.793261516398
C      2.400126641517     1.490168842209    -1.249564183430
C      3.455680726256     1.294678465171    -2.114617528220
C      3.804372854555     0.026274615533    -2.525023175892
C      3.077183628391    -1.038322795112    -2.059723193825
C      1.996297137066    -0.821393870303    -1.173300859961
H      2.132295300046     2.490099671069    -0.932156102584
H      4.010761701969     2.146648202804    -2.470492471526
H      4.637627390727    -0.126778785172    -3.205729041515
H      3.299682365929    -2.047079186680    -2.345072334530
O      1.356948430682    -1.869082900135    -0.795309565589
H      0.379449839184    -2.262789706862     0.154016244061

