# STO-3G

title

0 1
C     -0.266175109442     2.035300280875    -2.437261647200
C     -0.949633773348     3.136915673736    -2.988264276563
C     -0.933460053147     3.354000333211    -4.380936598714
C     -0.235667467796     2.466189705971    -5.223811970534
C      0.444931192978     1.361233126033    -4.673465062974
C      0.429558123369     1.146861076270    -3.281468860637
H     -0.270105591563     1.858121012560    -1.363883758477
H     -1.493765794191     3.821967811350    -2.340741327340
H     -1.461647954450     4.204829875307    -4.805815083080
H     -0.225220959624     2.631425497993    -6.298941215789
H      0.978799279314     0.671628883831    -5.323792204838
H      0.950221458931     0.292677054895    -2.853056481365
C      0.421249148595     2.783336026636     1.090016074688
H      1.413382187248     3.089616790552     0.755188965975
H     -0.352805664732     3.313619651958     0.528156923886
C      0.227101450224     2.958655349908     2.591932058487
H      0.354919243916     3.993525776952     2.904011331553
C      1.020846523352     2.060579322107     3.476766879031
O      1.606017102247     2.535523455539     4.488165616163
O      1.309122239125     0.759277269201     3.013600796966
C      2.065423004853    -0.070372932289     3.904895761256
H      2.207219820659    -1.072262024599     3.444494370588
H      3.069084964205     0.370307321428     4.100880491183
H      1.525496959492    -0.206657228381     4.869491375899
Pd     0.283984021670     0.797485953190     0.755813038067
C     -2.117649540196    -1.517521984135     1.991855364657
O     -0.862310799842    -2.009859619441     1.990963102846
O     -3.006660482062    -1.987313433477     2.722375923463
C     -2.458460530064    -0.249931672949     1.121395203407
H     -3.530677331062    -0.100418996838     1.294415416884
C     -2.269586741940    -0.426444014039    -0.368705379497
H     -2.597672878639     0.494872199804    -0.894058876525
H     -1.215481666471    -0.621641926415    -0.628252088838
H     -2.885075502827    -1.277492208214    -0.728109744811
N     -1.628979198708     0.902211275700     1.552392711917
C     -2.005051075320     1.786240873877     2.422101962545
O     -1.236491584047     2.777384378774     2.907375014759
C     -3.366998018622     1.803471280437     2.995224688434
H     -4.090770793273     1.976604840899     2.182556844053
H     -3.541060175413     0.845756490795     3.516095790461
H     -3.444619169297     2.627937756112     3.729363830686
N      2.121947549133     0.400427204303    -0.106273955157
C      3.262936375673     1.009891890396    -0.542520380374
C      4.287707947670     0.244148888854    -1.064807057813
C      4.174865420051    -1.130660953413    -1.144159897623
C      3.019930923422    -1.722096039137    -0.697859691029
C      1.995134645570    -0.909607423697    -0.169868998089
H      3.359996542899     2.087482795307    -0.485859804979
H      5.186184427595     0.729236687318    -1.410375624968
H      4.983183053267    -1.730937787340    -1.553544964409
H      2.864467273955    -2.781503370715    -0.731592116643
O      0.895420571482    -1.468217674227     0.233918009805
H     -0.173153453337    -1.726561970951     1.298588630609

