# STO-3G

title

0 1
C      1.052914291099     3.351084002684    -0.471841974003
C      1.162823363486     3.243217461883    -1.894503055854
C      0.082147004478     3.685255686502    -2.723238284311
C     -1.079780121843     4.202345606591    -2.140722931560
C     -1.175440085800     4.312392963299    -0.730024188139
C     -0.122844940814     3.890755470893     0.096582289133
H     -2.564100507889     0.692184042974     1.306611891562
H      2.133080480754     3.030363348820    -2.329890549855
H      0.184973778085     3.634836466368    -3.803820407191
H     -1.904490442689     4.532129723209    -2.766336690511
H     -2.074369053395     4.733478905001    -0.286404716146
H     -0.197801247203     3.986230313781     1.176159324315
C      0.903631012034    -0.827412189787     1.720776603796
H      0.305764608703    -1.227800159158     2.535170491756
H      1.056780575982    -1.487153646469     0.869813956250
C      1.429448378274     0.418570963254     1.709582265537
H      2.018102484447     0.758757583266     0.866436914133
C      1.282359745523     1.402054638805     2.792944930125
O      1.663273845833     2.586357623116     2.581021904625
O      0.650819221987     1.043059191325     3.997847034960
C      0.550240020494     2.076513748622     4.987373416476
H      0.044603232339     1.671827607333     5.890693228493
H      1.560591823237     2.436061006086     5.287807719752
H     -0.051108082777     2.932779302313     4.606347115158
Pd     0.531487282671     1.058248573517    -1.549887643349
C     -1.394715442956    -0.298099706589    -0.673074809576
O     -1.400629553908     1.014404143371    -0.621793128823
O     -0.466532117258    -0.864088361084    -1.394796137033
C     -2.372025112480    -1.083153940337     0.190002597615
H     -1.941269016436    -2.057866560238     0.437172202311
C     -3.713240748724    -1.283739935086    -0.481599131802
H     -4.369903631352    -1.880906036994     0.184599184257
H     -4.187648549507    -0.295448433017    -0.654103747353
H     -3.586839356380    -1.817957854789    -1.445518461054
N     -2.576916106168    -0.317278856204     1.418214425998
C     -2.465222756557    -0.904701684509     2.640116811717
O     -2.219701308763    -2.117931132323     2.830482091497
C     -2.669745629689    -0.001786504075     3.790340300537
H     -2.533194310762    -0.579574776692     4.720725769074
H     -1.922952800242     0.804230456417     3.720290595666
H     -3.692894058003     0.405571797132     3.725602684709
N      2.268213919394     0.471378950784    -2.303213818749
C      2.260605060823    -0.385914574425    -3.366491502348
C      3.447098295866    -0.912960232729    -3.824893856807
C      4.641598736705    -0.597485579455    -3.215506971465
C      4.630525422336     0.248889372100    -2.137646392747
C      3.409214739140     0.786221040548    -1.659511527154
H      1.325539002801    -0.635876105010    -3.854472670033
H      3.436154262789    -1.585060276968    -4.667229310343
H      5.575581271139    -1.018897684517    -3.577747081203
H      5.527695125995     0.511915199022    -1.614544427929
O      3.459845579307     1.531351063194    -0.636578804553
H      1.903472262739     3.059102934221     0.136810676312

