# STO-3G

title

0 1
C     -1.321121521153     1.866959189886    -2.033700642436
C     -1.635568506643     2.370890662048    -0.734609571106
C     -2.945003334208     2.194947031422    -0.197810098019
C     -3.918020094184     1.527833002657    -0.943709161317
C     -3.611662080679     1.044798914454    -2.243166446459
C     -2.334094919846     1.212973390154    -2.781872474070
H     -0.339582366730     2.068280512015    -2.455033425662
H     -0.939456044064     3.040103090879    -0.238324041949
H     -3.181480619989     2.601208880108     0.782316732255
H     -4.915100761260     1.381785854465    -0.536492239655
H     -4.378902845517     0.533663735223    -2.818811589386
H     -2.113177699918     0.842352146435    -3.778427633630
C      1.717536829264    -0.491073351321    -2.843921162798
H      2.486115641210    -1.070207256395    -2.337909855647
H      1.915091863944     0.572024298477    -2.944311063617
C      0.550656232481    -1.031419100031    -3.264286192146
H     -0.184849897567    -0.408779871500    -3.750515092161
C      0.147218214048    -2.434131951690    -3.077164667373
O      0.825462150476    -3.192095853771    -2.326413493126
O     -0.998922133440    -2.899463543480    -3.743850084791
C     -1.407662409444    -4.238669437143    -3.433960593520
H     -2.325382734709    -4.484221466312    -4.010048409652
H     -0.614724487284    -4.969921886990    -3.708654022632
H     -1.648917443709    -4.337790599014    -2.351621600968
Pd    -0.297128883923     0.416080367718    -0.295317044745
C     -1.656675388343    -2.110844097679    -0.099541864202
O     -1.723954021468    -0.939033012179    -0.747157613899
O     -2.498272226416    -3.025813929605    -0.201822627826
C     -0.417653410522    -2.270598933433     0.847694940876
H     -0.079678040127    -3.310262586505     0.745678351501
C     -0.796135224799    -2.015786966215     2.290594599044
H      0.091190380664    -2.144693545117     2.943125188989
H     -1.177154143113    -0.979638314511     2.398352836544
H     -1.585436524642    -2.729505222735     2.608127628774
N      0.609214247079    -1.269498710045     0.489174067166
C      1.889496615645    -1.465959146809     0.416957928215
O      2.754345286660    -0.509416397625     0.085593146341
C      2.503486648643    -2.768532706352     0.723057368479
H      3.602400406523    -2.682343491608     0.639529877370
H      2.228827515939    -3.058380259644     1.750150926233
H      2.144480183290    -3.506155897922    -0.018041890296
N      1.195320538826     1.719052111570     0.302348640689
C      1.244335235025     1.942682083613     1.654019553329
C      1.913810075721     3.037178093298     2.150113626030
C      2.541039353196     3.927316914655     1.307926297363
C      2.464838612269     3.722043426911    -0.042503585910
C      1.747994947606     2.616915531781    -0.562876606914
H      0.780411608057     1.236172073660     2.332884996275
H      1.958184218123     3.191222638964     3.216173419639
H      3.076587674234     4.784823159425     1.707189552359
H      2.909766409422     4.397999414277    -0.745776239739
O      1.668608509846     2.517762357130    -1.817162286890
H      2.298194419920     0.385742524696    -0.062479078495

