# STO-3G

title

0 1
C      0.825651304472     2.785713375257    -1.631208356047
C      1.650116309628     3.924924940354    -1.758528732560
C      1.515085560366     4.779536564237    -2.874116995843
C      0.558220036143     4.504828732019    -3.869320968211
C     -0.263398366315     3.366710005695    -3.744562051996
C     -0.128740303038     2.506762442356    -2.635636747796
H      0.859422090434    -2.055864210900     4.857338480094
H      2.385244205192     4.165888316098    -0.992341817300
H      2.150820363671     5.659805739141    -2.954887540406
H      0.453918013139     5.166531213826    -4.726544308069
H     -1.005734939737     3.142814535991    -4.508821484171
H     -0.760278158188     1.625150479415    -2.555622375859
C      0.818891705733     2.997173652869     1.729274582676
H      1.480744074602     3.852474453052     1.631562808128
H      1.093947986499     2.253881947039     2.469991351094
C     -0.441314195255     2.963840411355     1.141116530634
H     -1.105228084225     2.143240543104     1.370461690610
C     -1.041130418440     4.087383964085     0.398043703638
O     -0.427116026601     5.186044115841     0.322115015844
O     -2.297669862180     3.906220137334    -0.202499743561
C     -2.746193159016     4.979128021206    -1.041916343537
H     -3.736937081840     4.719703460622    -1.472723511162
H     -2.855264468152     5.920858538727    -0.457692685695
H     -2.033682007711     5.144728599005    -1.882705985267
Pd     1.031987121233     1.578557998544    -0.060227044879
C      0.515934028279    -0.492395426292     2.072366405876
O     -0.658800049319     0.147456764274     2.186723525749
O      1.511026322784     0.081521539617     1.571983882515
C      0.674887557270    -1.871837169349     2.757460417007
H      1.752410245583    -2.051208533543     2.810360306046
C      0.037118732234    -3.014529114258     1.993721197790
H      0.097672893978    -3.946235587243     2.592924225604
H     -1.026978168722    -2.790527592967     1.774810804513
H      0.572985713915    -3.175576944804     1.036074207567
N      0.162683690675    -1.875374709872     4.146266020459
C     -1.122076333148    -1.675808763506     4.515171908707
O     -2.041596509359    -1.302282108664     3.733052132457
C     -1.436345611616    -1.905536961118     5.936832666460
H     -0.823446702489    -1.213002956877     6.538132570540
H     -2.511438718353    -1.712321182292     6.098680290860
H     -1.191681143737    -2.954745890156     6.177564320830
N      1.468086638403     0.074011886001    -1.372590403245
C      2.425921346221     0.150856349744    -2.344413715155
C      2.646461338847    -0.921080248422    -3.182046429764
C      1.908228153791    -2.076179522923    -3.056473365697
C      0.946740973947    -2.140139539512    -2.084050716623
C      0.720565619726    -1.030427178544    -1.228300442728
H      3.017526887924     1.052668122930    -2.450686137214
H      3.404577783791    -0.848439884027    -3.943788362305
H      2.081999481646    -2.919489172218    -3.719259938809
H      0.332509064792    -3.006017274405    -1.946210753125
O     -0.205957162561    -1.153498809569    -0.357580597709
H     -1.397964221381    -0.414993406615     2.600190094390

