# STO-3G

title

0 1
C      2.339765905375     2.368497684391    -0.658618729431
C      3.274808674085     1.618747610097    -1.431689372978
C      3.323804243156     1.775527770638    -2.817736774382
C      2.442632633198     2.679036497436    -3.473104367164
C      1.521606712008     3.426300271044    -2.734523782064
C      1.467484562386     3.290109295458    -1.315682362971
H     -0.569667883382    -0.643007020330     0.507970275166
H      3.942476641482     0.922484895395    -0.932613498776
H      4.039914361427     1.201997518740    -3.401646881966
H      2.502538435752     2.797046880314    -4.552519482853
H      0.872279377978     4.145201035217    -3.227361463227
H      0.899139103002     4.007485494861    -0.732616715317
C     -0.132120491034     2.510029680978     1.089473444456
H     -0.901134296702     3.277016092179     0.962214422152
H      2.414861262865     2.365922580353     0.423246154511
C      0.453921009446     2.222314049056     2.271957121525
H      1.191509004369     1.429209530048     2.348634161423
C      0.110664436547     2.876163655023     3.546764236312
O      0.763302376675     2.575573864906     4.580268912697
O     -0.880137201095     3.877018875041     3.571794842010
C     -1.173513387508     4.430866949799     4.862267247106
H     -1.969828604232     5.199228240753     4.762639447057
H     -1.538254170283     3.640159587308     5.557184122860
H     -0.271947226218     4.917890979455     5.298844553790
Pd     0.193602071734     1.394149942704    -0.528820921786
C      0.253514870439    -1.363178236950     2.357191803675
O      0.380990291912    -1.151643659594     1.020178093635
O      1.205934939728    -1.687274040642     3.084553125583
C     -1.198953308635    -1.192446544966     2.938753901712
H     -1.033703934057    -0.950758976427     3.995449293792
C     -1.945218788480    -2.511411580138     2.888991383778
H     -2.909479965036    -2.416259627593     3.430834577851
H     -2.152789345081    -2.771815721908     1.831052828763
H     -1.344660695690    -3.316684830724     3.361339878897
N     -2.126416515716    -0.185289801531     2.413813698739
C     -2.216914576909     0.349336203311     1.259948649255
O     -1.416348514725     0.125661101901     0.152760484939
C     -3.316211679459     1.299914453452     1.064661874338
H     -4.257354889440     0.758433312920     1.261654470748
H     -3.187755103113     2.111164054303     1.801753087885
H     -3.298103321511     1.686447734886     0.031715921397
N      0.544778103012    -0.023682365350    -2.134050375796
C      0.002340864137     0.274561204877    -3.354519668263
C      0.379517798923    -0.436853630125    -4.475421500083
C      1.294018445469    -1.461993615418    -4.375372386218
C      1.804383733445    -1.758593164612    -3.139941824662
C      1.382045088090    -1.015665780487    -2.014924939792
H     -0.706862973502     1.088966326773    -3.442696754662
H     -0.046037150100    -0.186386990064    -5.432772578359
H      1.596564612707    -2.026849533731    -5.253011269803
H      2.505914092119    -2.554211563006    -2.987866227147
O      1.926085346461    -1.410338021712    -0.879736210453
H      1.402332187550    -1.253823776615     0.016641857935

