# STO-3G

title

0 1
C      1.235253020946     2.509346337826    -1.321454106901
C      2.210788805943     3.311878097374    -0.685523037449
C      2.727231050971     4.456996364677    -1.327442910674
C      2.268133796874     4.824047508105    -2.607165929976
C      1.288127904823     4.035651093852    -3.241441600937
C      0.775590224818     2.885546923288    -2.605557021450
H     -1.010090671434    -0.835052028529     1.000784265735
H      2.570911754343     3.053317517828     0.308295411455
H      3.480713517731     5.061591740547    -0.825088110941
H      2.661840190952     5.710970667808    -3.099181572893
H      0.919497591871     4.312859872673    -4.228019237840
H      0.018759352380     2.290535365565    -3.113781402792
C     -0.355868347134     2.019509995957     0.724486808406
H      0.224489065047     2.385725592212     1.583891527802
H     -1.835105801438     0.807823545328     1.577262744129
C     -1.658640432477     2.435692478251     0.593478588165
H     -2.234300927633     2.133707793376    -0.274852904906
C     -2.322254421231     3.425781334546     1.464483522394
O     -3.485341029124     3.809849618385     1.173770760948
O     -1.686637477247     3.848524445617     2.647641467934
C     -2.422146317586     4.778487631070     3.455184341348
H     -1.823471472544     5.041437131143     4.353721802452
H     -2.630033066349     5.715307278473     2.889677956991
H     -3.384129532755     4.332476882287     3.796230277574
Pd     0.633800684173     0.779468345416    -0.513012654047
C      0.632546331745    -2.022122643286     1.281492905578
O     -0.193139917244    -1.220009534074     0.477676529745
O      1.684072835411    -2.476658846092     0.838166726323
C      0.125352834827    -2.306937365106     2.731952285179
H      1.014174783443    -2.682777465598     3.247738105441
C     -0.919053165609    -3.407564115792     2.741926042232
H     -1.167215023107    -3.674650205605     3.790378242572
H     -1.839632332337    -3.047099187926     2.237964969474
H     -0.537716471776    -4.309746962909     2.219919951994
N     -0.402140688821    -1.202147837437     3.537756404689
C     -1.224488814385    -0.292997798156     3.215719776254
O     -1.823617906556    -0.143436980065     1.955566685496
C     -1.624416412666     0.658580052014     4.258110764692
H     -2.033657532050     0.075204340177     5.100602569446
H     -0.720885070786     1.204750090141     4.575755882792
H     -2.386044745391     1.352773818895     3.863274035071
N      1.606153883354    -0.399077282413    -2.049768241270
C      2.770365311866     0.047041511909    -2.621321062269
C      3.221987984800    -0.513963843808    -3.799897377035
C      2.519188123973    -1.534542434476    -4.403699522356
C      1.370450175527    -1.974919848922    -3.800830288586
C      0.955032872509    -1.376692471861    -2.594700470083
H      3.333325003409     0.846724989804    -2.154636429288
H      4.133836965522    -0.150520927945    -4.244806936598
H      2.870986160754    -1.983087713295    -5.328987411055
H      0.783537511823    -2.776539907744    -4.202845680230
O     -0.160660385596    -1.896867460959    -2.077657171218
H     -0.308999383328    -1.609153779594    -1.131657441073

