# STO-3G

title

0 1
C      0.870587927534     2.609303198232    -1.417861071739
C      2.135574467138     3.156759727336    -1.736687382379
C      2.243617592740     4.235466726331    -2.639979850932
C      1.091255306804     4.779682491609    -3.239010983707
C     -0.171670555643     4.242312524206    -2.921453338471
C     -0.283689938837     3.169778910021    -2.012394810306
H      0.245634659296    -0.550357491207     1.912493012166
H      3.038728038495     2.746594405516    -1.287753303622
H      3.225371001904     4.645799952187    -2.871663426040
H      1.175313407629     5.611651582817    -3.935078648151
H     -1.070021862371     4.661495032734    -3.371954639411
H     -1.269717371426     2.783445450348    -1.765332854706
C      0.154680586603     2.244395697426     1.121944849047
H      0.990545610653     2.747209812061     1.627363660827
H     -0.817937034338     1.005169633334     2.542618792782
C     -1.121524493395     2.562842972860     1.511801928074
H     -1.967876637784     2.115484941994     0.998193879800
C     -1.477268298730     3.611466015155     2.487726650953
O     -2.694776094245     3.805692422102     2.745486603289
O     -0.464652637420     4.337087517213     3.141474976258
C     -0.908110806013     5.313779442954     4.093837248707
H     -0.025110869383     5.819502041831     4.540620803326
H     -1.540297522130     6.087708127422     3.602242498586
H     -1.484554266222     4.831584487215     4.915791010908
Pd     0.759794331158     0.952751345456    -0.297855865723
C     -0.054717229654    -2.184698882019     0.746840477475
O      0.617828876784    -0.974440578766     1.051785252140
O      0.069311825018    -2.696326773524    -0.360082678712
C     -0.882877187039    -2.723410580495     1.952729785896
H     -0.189344623800    -2.752648313443     2.811017310130
C     -1.403054168252    -4.116058254588     1.698400390562
H     -1.924676447778    -4.488070788915     2.604458100928
H     -2.127998728318    -4.086587212440     0.858811398049
H     -0.569258332248    -4.803937263613     1.447740746086
N     -2.062378143235    -1.896472779963     2.276931095711
C     -1.986427778574    -0.690663045090     2.677076122803
O     -0.799833501744     0.025416926125     2.834363160870
C     -3.241652675010    -0.018907251694     3.032475795352
H     -3.872205512995     0.017943050679     2.128450084693
H     -3.732798329039    -0.630226251783     3.808586565437
H     -3.038229845150     0.995910012781     3.416595032479
N      1.751367054713    -0.223232939646    -1.816792343130
C      1.523721612537    -0.004465176259    -3.150672799990
C      2.392364645495    -0.519936576245    -4.093128625522
C      3.481098762100    -1.271438136751    -3.704208571488
C      3.675125141444    -1.487130834979    -2.364745228869
C      2.757745215983    -0.944628786993    -1.443831547460
H      0.669558179002     0.583576416848    -3.465648366100
H      2.208872853328    -0.337341117471    -5.139201041336
H      4.164176202714    -1.686256433788    -4.440655533907
H      4.488633092399    -2.076010594672    -1.991048664014
O      3.025127545484    -1.229384237790    -0.164293411864
H      2.270672589929    -0.988925377121     0.437378275481

