# STO-3G

title

0 1
C      2.663063069680     0.339456644316     2.954133030078
C      2.628882230308     1.731061354166     3.204583499763
C      3.344047155967     2.286651213723     4.286375628097
C      4.095386802822     1.459157815140     5.143262035568
C      4.128808728802     0.071226679779     4.906053840956
C      3.422022308085    -0.484235627677     3.818922058100
H     -0.152028176347    -0.556949717536    -0.550808706623
H      2.041504851502     2.390358428964     2.568653270400
H      3.307351038671     3.360725328120     4.462353424021
H      4.641882871437     1.886094507652     5.981652735457
H      4.703808340572    -0.581112299156     5.561627990186
H      3.468413548774    -1.558700915667     3.649563141335
C      0.075712375729    -0.271387951048     2.305261853411
H     -0.337143335964    -1.243158405295     2.624588907578
H     -1.236814686378     0.371133107431     0.769850040034
C     -0.669632995299     0.855100052982     2.549160943051
H     -0.268010335867     1.829232645561     2.299380206977
C     -1.942486556204     0.889944528161     3.298387161671
O     -2.527595769909    -0.186500767984     3.595609389909
O     -2.539464335207     2.137455608497     3.549810135321
C     -3.801981675732     2.102148306331     4.230481114246
H     -4.170973538897     3.140181915752     4.377095382564
H     -4.559065329056     1.545748989858     3.632291779461
H     -3.698873213931     1.625101354413     5.231680583198
Pd     1.815521592766    -0.450165483600     1.319185343107
C      0.311851812958    -2.507593819254    -0.699095979257
O      0.662871633318    -1.203239335113    -0.526726443822
O      1.119717697479    -3.407887548862    -0.402270092900
C     -1.102331591375    -2.831670160265    -1.265748518206
H     -1.207744941472    -3.912221722305    -1.130035128603
C     -1.187551952091    -2.533611113392    -2.749746958543
H     -2.163136354133    -2.887375705999    -3.143876066949
H     -1.115776163600    -1.437580140037    -2.907247621929
H     -0.368643700549    -3.044772802048    -3.296960900755
N     -2.266541412613    -2.205416110132    -0.637201924688
C     -2.411010623861    -1.042198882472    -0.154692932950
O     -1.447339880326    -0.018302276710    -0.153920733419
C     -3.721480756313    -0.704353181298     0.409968463030
H     -4.480064312406    -0.891858751720    -0.368738692517
H     -3.887648578021    -1.367813355874     1.276364621012
H     -3.733237402114     0.354367672529     0.720343196560
N      3.751293877663    -0.681362200740     0.411831418370
C      4.522657296820     0.451627224716     0.376341712243
C      5.875098572477     0.363124478593     0.117154975056
C      6.463182640973    -0.860784558742    -0.111556434406
C      5.668643031805    -1.975784467585    -0.083155897186
C      4.288513556710    -1.838379984350     0.177014033649
H      4.069788505950     1.419192094275     0.558299837736
H      6.472496300175     1.259901990375     0.100167701752
H      7.528266494407    -0.939349687967    -0.312919333640
H      6.059762527189    -2.958091995348    -0.260121949216
O      3.640190491340    -2.995421503046     0.170494404259
H      2.635858409543    -3.007429328617     0.118412287964

