# STO-3G

title

0 1
C      1.184104175353     2.981194077526    -0.323089169846
C      2.431066240935     3.630482477935    -0.260219984518
C      2.495514351087     5.028434515310    -0.446785110318
C      1.324625108476     5.770263048048    -0.692098475844
C      0.080684467779     5.111627693469    -0.749260403112
C      0.004854124279     3.715102734161    -0.567476831930
H     -1.636853799981    -1.224733041764     3.330364681088
H      3.343379583811     3.072402199808    -0.062000177622
H      3.459448187561     5.529832363654    -0.389907526272
H      1.380679121473     6.847450027105    -0.829123950516
H     -0.830319280298     5.678619136488    -0.928787998739
H     -0.962763846513     3.219834739149    -0.605002871105
C      1.924210572269     0.593656442437     1.841298200551
H      2.838578755795     1.161814845601     1.982193351773
H      2.039658797915    -0.480658758012     1.725988226329
C      0.671095699189     1.144535074803     2.104464295428
H     -0.199432163590     0.508253309944     2.132308535871
C      0.451613687081     2.498210969986     2.644568093547
O      1.441133188664     3.239050967815     2.889593614686
O     -0.859342421930     3.003211570731     2.654455511038
C     -0.997786483781     4.369271368537     3.069245282454
H     -2.071385875601     4.654311678834     3.046657633179
H     -0.624154494728     4.506012192326     4.109595418057
H     -0.440423507803     5.048451021121     2.383786975709
Pd     1.069497471098     1.006485822229    -0.184566937643
C      0.113348920715    -2.127274146740     3.041378908668
O      1.321114782325    -2.205240327879     3.302048002277
O     -0.733141572014    -1.341854091309     3.780060664644
C     -0.590642206426    -2.833183963600     1.832423047296
H     -1.508946934953    -3.302090193742     2.213552445294
C      0.275530682168    -3.887589643302     1.181878803253
H     -0.271489290542    -4.359012784750     0.339342427067
H      1.209704438968    -3.425178301644     0.798529247006
H      0.540316810339    -4.669239438935     1.924066380105
N     -0.968195587146    -1.856391457901     0.801321731694
C     -2.022609178572    -1.049072594239     0.981661359807
O     -2.662497299109    -0.945583678624     2.076431794748
C     -2.431902832461    -0.230206682163    -0.173087769285
H     -2.681219306873    -0.909970149631    -1.006391515582
H     -3.324621622430     0.353747916211     0.118009978341
H     -1.609685943789     0.450138989051    -0.445643969282
N      0.774262481509     0.731489997997    -2.205804690104
C      0.695862241648     1.457049558722    -3.359574052142
C      0.485032184443     0.801767739750    -4.557784011151
C      0.364802067159    -0.574740953636    -4.602244582241
C      0.456471988051    -1.282849274899    -3.429210628702
C      0.675095773385    -0.583781504085    -2.224028414019
H      0.788470363055     2.536894527388    -3.331343517911
H      0.420282402422     1.375640647483    -5.468140551015
H      0.204765247680    -1.086570795074    -5.547697016763
H      0.386744657636    -2.351272388016    -3.395164811992
O      0.774594440802    -1.241903800082    -1.106477879460
H     -0.357979777814    -1.729187996630    -0.031666504140

