# STO-3G

title

0 1
C      1.347351630979     3.065467872263    -0.357156385637
C      2.607886704899     3.693294620687    -0.379915000429
C      2.695899095538     5.068369116804    -0.686538704134
C      1.534304727310     5.812373403499    -0.967172979662
C      0.277109819481     5.177482122823    -0.941405254550
C      0.178586257611     3.803056689934    -0.641157507440
H      1.190734074597    -3.282569108334     4.270256442725
H      3.515090497402     3.133133839988    -0.165099818339
H      3.670652282601     5.551903498046    -0.697428053177
H      1.607527922772     6.872890274227    -1.196053962612
H     -0.626227083757     5.746643669698    -1.150493578421
H     -0.798845857762     3.326387668050    -0.623683744448
C      2.074279521453     1.086435571556     2.003072677799
H      2.822378742808     1.869785726976     2.069301420076
H      2.412142661746     0.055352518243     2.013601968087
C      0.716128243797     1.343687888738     2.184816601161
H      0.041606141560     0.505224381982     2.268990411736
C      0.143241789978     2.651798375040     2.545312803190
O      0.906227106067     3.621872598214     2.795180678140
O     -1.239619463633     2.834499340128     2.377568218930
C     -1.735758173021     4.147102799797     2.675204718347
H     -2.836076097259     4.169554787117     2.521415563839
H     -1.529543824844     4.415903682584     3.736368279512
H     -1.271972031768     4.907468443190     2.005694799848
Pd     1.201175714542     1.111590651751    -0.060788125879
C      0.292236408763    -2.559207882354     2.709191807807
O      1.037060448754    -1.571347950282     2.666053685371
O      0.441955902465    -3.529973951725     3.681252036408
C     -0.875044469917    -2.849570151145     1.751924669272
H     -1.752831535987    -3.060488028049     2.374655852630
C     -0.597833657249    -4.046097244766     0.865635808328
H     -1.463433546678    -4.221979675203     0.193990997794
H      0.307802106412    -3.858530652624     0.250899754524
H     -0.436025295501    -4.951731331889     1.487192526688
N     -1.150187082025    -1.712842602993     0.898370456511
C     -2.032354794295    -0.762549895246     1.289192611051
O     -2.621420496701    -0.736988095151     2.399346856273
C     -2.307510753552     0.289767734668     0.288722243878
H     -2.744175956259    -0.192263816619    -0.602916355596
H     -3.029244232399     1.002078470593     0.729969521584
H     -1.371903186811     0.811418707566     0.039698861952
N      0.948074997620     0.719443045452    -2.063574610593
C      0.925680860887     1.396179270233    -3.249153960313
C      0.702140692310     0.701044505176    -4.422067879006
C      0.511403389389    -0.667770118587    -4.410085040219
C      0.544729851239    -1.327656674138    -3.206738011674
C      0.777603324594    -0.590546223987    -2.026098863469
H      1.074999488864     2.469813434873    -3.266898062212
H      0.683106066702     1.237126049984    -5.357074594308
H      0.341034913937    -1.211475278773    -5.335672507327
H      0.415610156880    -2.388069134820    -3.128182765551
O      0.815495042825    -1.205213462094    -0.884623000469
H     -0.507247103387    -1.541110292608     0.108048059437

