# STO-3G

title

0 1
C      1.172436300454     3.008884597748    -0.403192305520
C      2.475102577238     2.973788685520    -0.944774632992
C      3.156808921714     4.176634616087    -1.220357674837
C      2.540467196123     5.419367074730    -0.971505811234
C      1.235933412872     5.452784461123    -0.443672447727
C      0.548652288876     4.252007891900    -0.161528168574
H      1.064135475151    -0.972417883501     3.975537866785
H      2.948148152727     2.018916464721    -1.162957547365
H      4.163266299435     4.139063800287    -1.633120330105
H      3.069725781804     6.345502684532    -1.184310639883
H      0.752536990187     6.407285129988    -0.243864337371
H     -0.457177669289     4.300353588967     0.250680225054
C      1.383248538525     0.987827955973     1.805747507795
H      2.250989609941     1.639058654979     1.786912775848
H      1.578459781948    -0.054706687078     1.569058224571
C      0.146410480305     1.420448916843     2.288905421390
H     -0.655068135183     0.707637623684     2.402287937104
C     -0.103200638063     2.740943707228     2.890816774094
O      0.828753999550     3.583389792070     2.975545560423
O     -1.421783906326     3.077754701627     3.242528847022
C     -1.603192794750     4.381632009769     3.813118045350
H     -2.676951558223     4.531394781050     4.057128257489
H     -1.015515682587     4.486278003035     4.753622170401
H     -1.293949022139     5.175284081569     3.095477419087
Pd     0.180834408412     1.325780982490    -0.043161940458
C      0.376988986803    -2.190390973355     2.604081402473
O      1.461329991699    -2.339429427389     2.032841556519
O      0.227479146512    -1.442026922614     3.756740028845
C     -0.980766125452    -2.756065895164     2.145169156006
H     -1.752454715786    -2.087441188132     2.541020622415
C     -1.222481863320    -4.152116364454     2.678889282770
H     -2.206435167841    -4.527079104106     2.328036006723
H     -0.418630984901    -4.834937707605     2.331972551580
H     -1.223052082779    -4.134905035268     3.789337082704
N     -1.082143914287    -2.793758038656     0.692426979154
C     -1.192902360327    -1.656573904596    -0.025097897650
O     -1.109295839563    -0.511994851516     0.494912070764
C     -1.548994827116    -1.825152407310    -1.444267270093
H     -0.705133663608    -2.320169347964    -1.957431208245
H     -2.466443125122    -2.433887901386    -1.505245735316
H     -1.738173526805    -0.831739429803    -1.887662801048
N      0.124334431436     1.098450667434    -2.079939411595
C     -0.386937039230     1.977711692953    -2.991214808276
C     -0.200420153605     1.756627345407    -4.338738945820
C      0.514008672102     0.665935553444    -4.782832274065
C      1.040169198001    -0.198192304710    -3.859745913800
C      0.858543702498     0.041770690386    -2.473210870742
H     -0.956619670171     2.835494245943    -2.653317350312
H     -0.611410726135     2.454179950819    -5.049414677328
H      0.665328682977     0.498890381129    -5.845832086523
H      1.626836381973    -1.048199423698    -4.142795507252
O      1.403149988173    -0.778099453407    -1.661676055346
H     -0.930396081042    -3.655928850958     0.190417321858

