# STO-3G

title

0 1
C     -0.075340373918     3.600241366690    -0.828815634921
C      1.035426841073     4.463919289786    -0.736686756761
C      0.909174157422     5.808019479580    -1.145386536882
C     -0.317155478201     6.288055902832    -1.646130362593
C     -1.420457514632     5.418341218236    -1.737269939600
C     -1.304883293011     4.071834885322    -1.329044019004
H     -0.583870470479    -1.670702988322     5.332005871042
H      1.988416621488     4.103408170297    -0.354502406739
H      1.766654164019     6.473872499554    -1.069782891332
H     -0.411334154785     7.325145380660    -1.959484247981
H     -2.370900714869     5.780325511480    -2.124374355340
H     -2.163432852064     3.409527196812    -1.415175317425
C     -1.333378581866     1.625500018745     1.301266380217
H     -1.415748896455     0.555807554238     1.451502678086
H     -2.223232927740     2.151047361647     0.970041992163
C     -0.250403273323     2.333480274958     1.819282991224
H     -0.292138617903     3.408281672714     1.887019479847
C      0.909778222373     1.708608656252     2.467990113387
O      1.482530079858     0.786038236779     1.828779685207
O      1.636546775420     2.485551383677     3.384150564119
C      2.769620924933     1.836846683688     3.978297863350
H      3.245076564144     2.524457128069     4.710418155959
H      2.456459170044     0.915356762502     4.521164335751
H      3.528349978995     1.573518895165     3.206780549233
Pd     0.137346293446     1.683219709631    -0.366725190454
C     -0.590917481640    -1.584769897655     3.393498924013
O     -0.828940053975    -0.368456541868     3.397720176781
O     -0.443389690864    -2.285931763917     4.577563420873
C     -0.419291251109    -2.497147651595     2.163725239726
H     -0.959182414720    -3.421983036403     2.404263559758
C      1.036628731894    -2.833749095325     1.912886921740
H      1.118594216982    -3.522567735116     1.046904451107
H      1.603620853774    -1.904309593907     1.690793713738
H      1.475401878405    -3.324921647740     2.806424043620
N     -0.963189099076    -1.904412845504     0.958341364560
C     -2.303890621584    -1.866924152186     0.776486604110
O     -3.152981665278    -2.212429206449     1.636061924597
C     -2.751398156311    -1.395796403513    -0.551316862862
H     -2.336197288592    -2.079096676999    -1.312347758518
H     -3.855673946301    -1.425702451895    -0.574720155586
H     -2.390038324193    -0.367273209204    -0.710297977882
N      0.937635472384     1.133795132233    -2.189210831170
C      1.352303050834     1.689793871092    -3.363852383925
C      1.825626560610     0.870704269224    -4.371362497758
C      1.886599221137    -0.499857686528    -4.200364787750
C      1.461239141636    -1.036140499915    -3.010198166925
C      0.985938406423    -0.172242979371    -2.000238465313
H      1.307187120709     2.764077068339    -3.502512610174
H      2.154271280783     1.310962701311    -5.298514323504
H      2.263075274153    -1.140681570852    -4.993303659977
H      1.485150094628    -2.087809130037    -2.810273678783
O      0.570992072335    -0.666175358943    -0.880233497415
H     -0.338338557446    -1.500153808831     0.244708935867

