# STO-3G

title

0 1
C      1.109813830235     2.450276805839    -1.444386843338
C      2.180635873834     3.300239819180    -1.792200178489
C      2.060223431212     4.159149494051    -2.906872501255
C      0.879480650452     4.169439180843    -3.672317392293
C     -0.180382369450     3.307424325792    -3.327050229144
C     -0.067639855805     2.441249239533    -2.220166968355
H     -0.789102633491     0.137888974882     3.771537365941
H      3.106640777620     3.302647455119    -1.221304144590
H      2.888078422110     4.814023569896    -3.171434455428
H      0.787578706313     4.832601279815    -4.529270417627
H     -1.092454199786     3.296993407585    -3.920601286600
H     -0.875357159845     1.753677749979    -1.981413111167
C      1.672184157435     2.941307049560     1.648917107798
H      1.967544054895     2.477828105975     2.584798515111
H      2.456991074136     3.385250911282     1.045771831086
C      0.337833330756     3.133614767418     1.329868210459
H      0.064570278144     3.655717780921     0.426045140408
C     -0.777938898955     2.958140342615     2.275336069575
O     -1.945561911381     2.959873446020     1.802386653968
O     -0.545968836845     3.204089880032     3.639044130221
C     -1.697091967067     3.153831615003     4.493087573087
H     -1.382834275120     3.339395001115     5.541932977262
H     -2.439895912727     3.930977339608     4.205555352779
H     -2.176806376758     2.150940272314     4.455509492026
Pd     1.264776133304     1.261946364437     0.151073696066
C      0.698926364906    -0.420886357205     2.617972670501
O      1.741126318555    -0.071077975786     2.012167651019
O      0.224006765468     0.296824419664     3.661435893712
C     -0.245186809015    -1.568512803484     2.160750172528
H     -0.721008454662    -2.003564366737     3.048982091413
C      0.450100687357    -2.663138991184     1.387015385710
H     -0.302040750006    -3.365841610655     0.971654015233
H      1.047778507413    -2.236969102772     0.560119465396
H      1.132226215104    -3.221284101296     2.060850470033
N     -1.287827044285    -0.961777434323     1.325357756751
C     -2.262762735992    -0.283700351914     1.941080130634
O     -2.269474046654    -0.040441431846     3.197315078134
C     -3.366044624965     0.191874650380     1.094800338445
H     -2.950387373662     0.877536902238     0.335823953317
H     -3.837646345379    -0.683496736810     0.618413319741
H     -4.092159977448     0.733330950294     1.728249244715
N      1.512956648078    -0.248197481391    -1.225889236687
C      2.742111590326    -0.458869171401    -1.785855796570
C      2.880065972338    -1.341481204832    -2.834890488257
C      1.787935196685    -2.014810020892    -3.334570540626
C      0.563356018206    -1.791648930935    -2.763791298913
C      0.436991301768    -0.876578036693    -1.690320895037
H      3.607715009416     0.065870701704    -1.398890601752
H      3.853263014888    -1.500302637742    -3.269356848342
H      1.895294160529    -2.708726002062    -4.164017357156
H     -0.323447565271    -2.281678113657    -3.111305047491
O     -0.743832230430    -0.724306077780    -1.208597004696
H     -1.142082485244    -0.888887136992     0.273406812110

