# STO-3G

title

0 1
C      1.737904805304     2.784859489281     0.174163760884
C      2.950082804476     2.319022157676     0.719732873612
C      4.099608073585     3.135593484399     0.649566608374
C      4.040782670485     4.403923058840     0.040894335669
C      2.823363859379     4.860418715288    -0.501358616342
C      1.667828431100     4.053507192066    -0.437888250663
H      3.333428865537    -1.990646388198     2.238473147627
H      2.998540709129     1.336678014530     1.180122990371
H      5.036759258929     2.777207149716     1.072017400179
H      4.929482566489     5.029202058748    -0.007814519292
H      2.767837943257     5.841147951545    -0.970199000605
H      0.733329163527     4.414881666212    -0.861893868538
C     -0.161472903904     1.580501895946     2.374020777326
H     -0.825999661083     0.738622769586     2.541708185919
H      0.848211299527     1.441986110343     2.740535162087
C     -0.613056089998     2.828590792513     1.942372027077
H      0.067633598058     3.664321116910     1.954132476628
C     -2.022051867894     3.184175893631     1.699165427454
O     -2.905305562548     2.288815585502     1.723265883340
O     -2.317483308831     4.490989589383     1.278101292208
C     -3.698661978868     4.762243354594     0.998716722637
H     -3.810508989466     5.822502358746     0.684222917777
H     -4.071312507331     4.114250638177     0.172664449672
H     -4.325587626324     4.601524507632     1.905332509464
Pd     0.146917222547     1.595099207000     0.162243592181
C      1.546200418853    -1.791725628714     1.498478881202
O      1.628609978970    -0.555146344916     1.481943054583
O      2.597388577979    -2.572166845907     1.941221295233
C      0.347572873413    -2.646293567439     1.050163891253
H      0.274312437614    -3.465416957489     1.775230891760
C      0.564990932420    -3.236115385283    -0.328266265474
H     -0.314826943808    -3.848083020059    -0.616952077971
H      0.705287826173    -2.425765092751    -1.072233610323
H      1.466057558201    -3.884994868009    -0.325455398054
N     -0.898900510072    -1.910506429864     1.036744288180
C     -1.577177857092    -1.732290570431     2.196695972875
O     -1.143422418261    -2.044204186731     3.335521897019
C     -2.939188374232    -1.182456722111     2.050449584383
H     -3.540119500748    -1.907630960225     1.476805005490
H     -3.370743388532    -1.036637440821     3.056492265260
H     -2.890340206094    -0.219622843945     1.513781531862
N      0.469416602950     0.975522584806    -1.778587243900
C      1.357332289789     1.179768160954    -2.794290047291
C      1.196429802584     0.492676343439    -3.982860569696
C      0.151141270613    -0.395438783710    -4.152403665735
C     -0.726210174454    -0.587995350111    -3.114033084457
C     -0.535668769526     0.130458660921    -1.913406283914
H      2.180156196915     1.874019816179    -2.666627566338
H      1.899105809483     0.654795093942    -4.783751513972
H      0.027923193368    -0.933209642291    -5.088743678770
H     -1.556767595006    -1.260843853243    -3.178585768930
O     -1.344925174374    -0.063104443509    -0.917569917333
H     -1.170128159856    -1.354118570590     0.208726934013

