# STO-3G

title

0 1
C      1.610297472356     2.781777609553     0.836407673706
C      2.877240105982     2.276295860557     0.414813426558
C      3.566121849716     2.851015954793    -0.655350319557
C      3.015022327484     3.953121580985    -1.360947728174
C      1.766656448322     4.456600786677    -0.983707720940
C      1.052096411479     3.875192157801     0.101434071067
H     -2.166499104732    -1.729856841544     1.757832058367
H      3.299397064528     1.424054296075     0.941308111629
H      4.534435879362     2.451043433970    -0.948836433809
H      3.569720807866     4.406390323560    -2.179394182734
H      1.339195584263     5.313785011809    -1.499540013417
H      0.159824852624     4.383244145043     0.455290863507
C      0.926740792781     2.238651773849     2.105295060119
H      1.406340780907     1.291171829937     2.367859507878
H      1.060723407128     2.935514645997     2.944387463040
C     -0.547861717000     1.944834254056     1.730473350816
H     -0.842493672075     0.917330650565     1.925508833434
C     -1.636654725407     2.878704169336     2.090178366416
O     -2.827681204222     2.486048780904     2.007086959756
O     -1.328129720380     4.193914897136     2.480020776951
C     -2.446079327667     5.028662156024     2.814690339982
H     -2.079559016295     6.036067889743     3.108457867581
H     -3.128272567536     5.147419439673     1.942265659129
H     -3.015407900966     4.603091333164     3.672333787799
Pd    -0.142991766815     1.724682198900    -0.287278206881
C     -0.255766868634    -1.021537462892    -0.188474779640
O      0.889618436041    -0.634769103655     0.617556759532
O     -1.210464414906    -0.073423898590    -0.230211766644
C     -0.783986763580    -2.405692899064     0.299000856847
H      0.039434751588    -3.127477526896     0.320351710705
C     -1.915251941272    -2.961211416808    -0.539209529561
H     -2.268481053863    -3.916298621593    -0.100150684275
H     -2.755053052544    -2.237196924811    -0.555661486442
H     -1.565642447046    -3.139926259014    -1.576431230197
N     -1.281383706366    -2.217641467465     1.669646427888
C     -0.438856882049    -2.286345541653     2.728493805116
O      0.805994568855    -2.474373093497     2.632122936938
C     -1.027038850020    -2.128569183336     4.073812373963
H     -0.780154515774    -3.035548498352     4.650693347191
H     -0.568631947446    -1.240321159806     4.537255517133
H     -2.123614190111    -2.010507867192     4.007771127667
N      0.547247965698     0.965804702234    -2.226009769386
C      0.888335567733     1.858147420926    -3.206675988798
C      1.353203918034     1.412135936190    -4.427064619428
C      1.478956741394     0.063931535074    -4.672630193239
C      1.125743508962    -0.810004971504    -3.681206465634
C      0.650797508606    -0.311731976746    -2.444319788793
H      0.777262139891     2.919596080412    -3.031127072217
H      1.616427335233     2.125810792354    -5.189488741353
H      1.844551610682    -0.297453028346    -5.629910996498
H      1.194464567542    -1.871482037921    -3.806246512662
O      0.352573707917    -1.295012250599    -1.594669764705
H      1.204014048797    -1.385480596709     1.185649327779

