# STO-3G

title

0 1
C     -0.046680820137     3.926543532566     0.324046602345
C      0.410173147085     4.774478061031    -0.713272689915
C     -0.483714110208     5.597603340015    -1.417268109244
C     -1.851979667461     5.599199019723    -1.081777020064
C     -2.313009611651     4.775298736118    -0.035286442230
C     -1.421798386571     3.944150167866     0.664475902083
H     -2.620620863534     1.422291741229     0.245988677950
H      1.467122373056     4.775218939649    -0.975244844671
H     -0.117407340451     6.235660763152    -2.217850010840
H     -2.545844397887     6.241223090700    -1.619322656622
H     -3.363896607394     4.791037776264     0.244739770882
H     -1.791901459387     3.338447029746     1.488781671452
C      0.940122122812     3.096395339999     1.057298120191
H      2.794352615848     1.297906277002     0.397251523000
H      1.944058542214     3.514956870506     1.111794934293
C      0.604607738638     2.008877305795     1.892435517714
H     -0.423126728782     1.681863824529     1.951559134018
C      1.472605908808     1.474098729057     2.951216696204
O      2.713689610519     1.677372988139     2.865800295557
O      0.972402258698     0.441849476791     3.761261674092
C      1.877126118605    -0.076959334891     4.746317631401
H      1.361962727213    -0.862744837350     5.340038335065
H      2.770470006114    -0.535388036693     4.264745622800
H      2.203001994175     0.726172363170     5.445842365120
Pd     1.343259581410     1.210718471581    -0.052827307193
C     -1.183700111806    -0.247303534105    -0.994546613041
O     -0.716669300402     0.923426293013    -0.736420224133
O     -0.498676039965    -1.214330837946    -1.529795348446
C     -2.648603514479    -0.493095419216    -0.542143054237
H     -2.736367563342    -1.530747673088    -0.207367000576
C     -3.644798794617    -0.259484960158    -1.654627773167
H     -4.670098276996    -0.450032585144    -1.276030810201
H     -3.584012034606     0.799384277954    -1.985048336666
H     -3.434995776983    -0.932298462136    -2.511251665088
N     -2.915066733752     0.482582899640     0.520319451420
C     -2.855423727335     0.314011507021     1.868576129512
O     -2.602464502611     1.264362019675     2.655397705187
C     -3.140029788686    -1.029575944847     2.415368938710
H     -2.324630258665    -1.708511687639     2.121544372467
H     -3.178818309288    -0.946779779997     3.516277071119
H     -4.118144254621    -1.360648343294     2.025602430190
N      4.040574691814    -0.264312627405    -1.274834327569
C      5.267780340177    -0.776233898718    -1.600678239117
C      5.354086679881    -1.940799200794    -2.342551779447
C      4.210880439463    -2.589184207199    -2.761959006293
C      2.995369321768    -2.051491656717    -2.419851918159
C      2.974504523922    -0.858725725134    -1.656564779632
H      6.168013292734    -0.268037551503    -1.274994776332
H      6.323837171186    -2.337200941487    -2.595819743430
H      4.272307698411    -3.501669643207    -3.349399537531
H      2.075474814193    -2.508072221776    -2.724578589653
O      1.750937056086    -0.377446762782    -1.357394803054
H      0.758449636789    -0.885388795065    -1.564598952701

