# STO-3G

title

0 1
C     -2.395059351436    -1.643275921951    -1.035362843045
C     -1.426745201686    -2.581092839355    -1.444024750040
C     -1.104734281315    -2.708187838460    -2.810108811728
C     -1.754432037697    -1.901054824659    -3.766273093825
C     -2.729050224753    -0.968658443800    -3.356973382583
C     -3.049662297571    -0.841488055987    -1.990577481153
H     -0.670962271847    -1.936029730011     2.589772416259
H     -0.934649784916    -3.204061891575    -0.701259668641
H     -0.356740316156    -3.431058847338    -3.126969929289
H     -1.501324763404    -1.996160260237    -4.819459413068
H     -3.233751800861    -0.348912444693    -4.094420204724
H     -3.807618832130    -0.127759220489    -1.673241045684
C     -0.488503328602     1.417878241908    -0.244190557277
H     -0.269179035513     2.473482770105    -0.047184083821
H     -1.559750623411     1.285634773571    -0.437682907794
C      0.273256894262     0.887096147786    -1.464220472864
H      0.157898580906    -0.196358170452    -1.524666517595
C     -0.044440539165     1.464524587680    -2.811337408516
O     -0.777629581755     2.492900850903    -2.882937698341
O      0.222418792661     0.694185471134    -3.961276022989
C     -0.169679488672     1.276667338747    -5.211112608889
H      0.107800148307     0.589437788794    -6.038428894602
H     -1.270746205263     1.436441805694    -5.243690399310
H      0.351820942610     2.246949225439    -5.373347290186
Pd    -0.018692682565     0.240862319913     1.346540056423
C      1.895736649517    -1.616120867491     2.591666833901
O      0.589851902155    -1.336551240600     2.674070531800
O      2.458211247880    -2.655893341123     2.981168931616
C      2.722822651817    -0.439302083273     1.959637020277
H      3.686814982488    -0.869358979630     1.662463400584
C      2.957420329222     0.661654547561     2.973654458639
H      3.550338985128     1.480575867008     2.519502434676
H      1.983033867879     1.070117320854     3.311771912061
H      3.507455508977     0.259894139487     3.850358822749
N      1.965441136538     0.163320295850     0.830417046643
C      2.467530232714     0.592493956961    -0.279864056941
O      1.760774138934     1.099377493977    -1.300242610493
C      3.922928652261     0.590569882862    -0.533313829510
H      4.114723656386     1.054961732745    -1.518333082316
H      4.417904640050     1.182307563691     0.251951091142
H      4.277295820561    -0.453687515422    -0.552863224334
N     -1.985208362916     0.168021666532     2.015966412411
C     -2.828354702868     1.246031904909     1.953315956318
C     -4.190500951571     1.066553060786     2.077442475628
C     -4.714917918920    -0.182401655418     2.326974726974
C     -3.849526135882    -1.238272264306     2.430893328914
C     -2.459937817041    -1.017771195006     2.309026709965
H     -2.429214600797     2.236017747302     1.764963536282
H     -4.846281552306     1.920371651109     2.010344841031
H     -5.785450847154    -0.323775946111     2.453056673006
H     -4.181535437175    -2.228196252916     2.680707965429
O     -1.720754872444    -2.090543726669     2.478251474174
H     -2.637113916233    -1.546491564069     0.018090243489

