# STO-3G

title

0 1
C     -2.440665198669    -2.673649032394    -0.671816657250
C     -1.533753411917    -3.661107037016    -1.102976157241
C     -1.669535451629    -4.231418639567    -2.384472491081
C     -2.715858119548    -3.817931138775    -3.233889783376
C     -3.628971122484    -2.836175114327    -2.799437492288
C     -3.490057186478    -2.265949333552    -1.518471986702
H     -0.809266926007    -1.036701286655     2.802725606971
H     -0.732632125264    -3.982867541539    -0.441604364199
H     -0.969350900126    -4.994917429007    -2.715622160958
H     -2.822406791693    -4.261154190297    -4.221394559592
H     -4.442538785664    -2.523189121937    -3.449946930213
H     -4.199346497082    -1.513777668363    -1.177133294187
C     -0.505439963355     0.188570531955    -1.322234201366
H     -1.507949229606     0.537734930672    -1.582794188634
H     -0.451347150068    -0.882690423266    -1.548232254413
C      0.556117704088     0.958044266743    -2.092283281515
H      0.435348976030     0.846196991133    -3.168399903784
C      0.728026892453     2.401229121471    -1.762285574992
O      0.269627150800     2.838523681204    -0.667128073139
O      1.155791064364     3.287295159109    -2.769725814478
C      1.255671249284     4.666671385557    -2.390099225689
H      1.616417639122     5.260758143730    -3.257096712020
H      0.262424277794     5.065943860596    -2.083910265766
H      1.980589597837     4.794267064488    -1.554617082070
Pd    -0.136154395488     0.277843762851     0.677425076391
C      1.686751297296    -0.704329251286     2.774758375845
O      0.400163598905    -0.347946799170     2.686031520772
O      2.184488902920    -1.468235485868     3.624056789447
C      2.593800732637    -0.025121193022     1.692251257267
H      3.512683106425    -0.624545518376     1.663015924205
C      2.944424039018     1.392901497783     2.092709237076
H      3.634345060838     1.838971327815     1.348100981881
H      2.017953428910     2.004683825037     2.128933412590
H      3.430454090220     1.401809558902     3.090688446469
N      1.901896446694     0.073699885602     0.378223874260
C      2.468088397414    -0.045368898068    -0.775985890040
O      1.887434276782     0.247791675476    -1.953543432088
C      3.857876512772    -0.522665347412    -0.924658607581
H      4.113630441906    -0.554179792963    -1.999893541468
H      4.527719923483     0.185994910434    -0.412241093005
H      3.928385740188    -1.539155436684    -0.501461211870
N     -2.145262793104     0.358153076856     1.164564442240
C     -3.013694701249     1.209688550789     0.536827856558
C     -4.375345292853     1.014971440167     0.654510697835
C     -4.874128695675     0.006975068145     1.450715569662
C     -3.984344657340    -0.799706731756     2.109189903659
C     -2.598754215880    -0.560076717218     1.980459213291
H     -2.632212481704     2.013968051564    -0.082052748214
H     -5.051379030706     1.683249837648     0.145585037769
H     -5.945703167645    -0.132910871102     1.567904783047
H     -4.301412418408    -1.562549392825     2.794014097716
O     -1.834278128035    -1.341504110695     2.707954644710
H     -2.335453474199    -2.231278523548     0.314145270626

