# STO-3G

title

0 1
C     -0.808165438318     0.871053225739    -2.032138814415
C      0.002975815806     1.607128091287    -2.916662727663
C     -0.192933891597     1.484957516069    -4.309210049269
C     -1.201353147856     0.643786817827    -4.813097968719
C     -2.007771939485    -0.087881172767    -3.919105039603
C     -1.816468370632     0.019168322045    -2.526506609210
H     -0.030993389590    -1.455005306567     4.263476868851
H      0.795500638384     2.255331790390    -2.549155173473
H      0.445694289070     2.046470638574    -4.988069585670
H     -1.352409913591     0.553624762140    -5.886212177677
H     -2.780192875520    -0.752819182531    -4.299657658759
H     -2.409315679370    -0.575793735273    -1.839846141797
C     -2.036192546583     2.436754576860     0.150486032361
H     -2.447731298292     2.296573473039     1.146036733659
H     -2.721121307363     2.320696497665    -0.682170196225
C     -0.783643960157     3.083431421447    -0.040947076327
H     -0.500935626368     3.381849601725    -1.038719366902
C      0.008385387672     3.715903760915     1.029150556433
O      1.141413992887     4.179530810508     0.733585562612
O     -0.558908497524     3.923918858536     2.299198499944
C      0.251973672408     4.646727661412     3.236111878636
H     -0.291795045876     4.736069358549     4.201125759085
H      1.212144061011     4.114758849880     3.423206204565
H      0.466412638965     5.673750260833     2.862579793168
Pd    -0.559057281372     0.907750474308    -0.058994960556
C     -0.904580660004    -1.730326373298     1.190533405164
O      0.298995482517    -2.177858640838     1.026199591810
O     -1.634682521284    -1.185379926630     0.280766120052
C     -1.393091294016    -1.745702673726     2.677677274378
H     -1.339748114146    -2.778440152663     3.040183232899
C     -2.792568024666    -1.207445688820     2.885476415034
H     -3.053928285494    -1.264598364354     3.962233694213
H     -2.836662478824    -0.148316102388     2.561728692256
H     -3.520847026744    -1.804285519932     2.299052197951
N     -0.456922054280    -0.949099544516     3.499837981267
C     -0.000070388397     0.274667181060     3.183401696217
O     -0.340765219881     0.946827584358     2.169870229961
C      0.955675434300     0.908120356287     4.116724145133
H      0.491022898847     1.838115000707     4.481774698467
H      1.180177929064     0.240065001910     4.965100335641
H      1.879092270663     1.128393639019     3.553633168105
N      2.927761018732    -1.001234752478    -1.563345351009
C      3.990158323736    -0.732812751703    -2.383400413679
C      4.487755655441     0.557138376632    -2.472287770109
C      3.924550041870     1.575449405450    -1.730322417708
C      2.859965757120     1.275972950112    -0.919486241313
C      2.396037513029    -0.059590050446    -0.881547457483
H      4.438314352680    -1.531815523564    -2.962321931776
H      5.325447673767     0.757981008483    -3.118868414256
H      4.317785317333     2.587179197606    -1.782779158494
H      2.397176005582     2.012631088889    -0.295044951640
O      1.348380669571    -0.254325861493    -0.049377318286
H      1.070251166104    -1.235504900235     0.221460963154

