# STO-3G

title

0 1
C      1.924265630519    -2.159157227993    -1.122156039351
C      0.959316101254    -2.469337919255    -2.103401156675
C      1.367387359099    -2.786617888925    -3.414184984084
C      2.737628411450    -2.792123752604    -3.747188248254
C      3.701823274190    -2.488033730254    -2.765665800541
C      3.294962441548    -2.175846958628    -1.451820939663
H      1.594064551366    -1.934617492799    -0.111548184913
H     -0.093676483620    -2.458953484125    -1.833705615844
H      0.623283472396    -3.032962850051    -4.168545221387
H      3.050958271782    -3.039362674945    -4.759283640407
H      4.759674127157    -2.505080362965    -3.019804915813
H      4.046975540033    -1.968382054794    -0.692812274698
C      1.419579806034     1.472236736273    -1.355187766384
H      1.603738146804     2.480301442010    -0.993427409413
H      2.293953954271     0.861492886556    -1.551419653719
C      0.174077475672     1.045729277940    -1.765003297185
H      0.060019799036     0.086938278238    -2.239653601723
C     -1.060041255729     1.832320793331    -1.640440296100
O     -1.156662136566     2.647332709576    -0.680878412936
O     -2.162872473656     1.507246366569    -2.444022171869
C     -3.410181777840     2.115921291172    -2.083874823658
H     -4.197883550735     1.780033773763    -2.792575041787
H     -3.720366763807     1.802515184946    -1.061491178795
H     -3.342781886083     3.225938486440    -2.134932756098
Pd     0.604332673032     0.339643996085     0.563297988031
C     -2.237067728046    -0.649077029734     0.453198043761
O     -1.000841472262    -0.665916780682    -0.110191473694
O     -3.230100987583    -0.993685591189    -0.220947979073
C     -2.403667518106    -0.249816902519     1.954606846969
H     -3.461523959487    -0.448490675972     2.155072291205
C     -2.156196219212     1.228536158164     2.210595258512
H     -2.485631202742     1.478480338791     3.240754669039
H     -1.078919798606     1.454361408157     2.129223439136
H     -2.729039065549     1.848901229897     1.490325924305
N     -1.630769030141    -1.033809039183     2.915597868447
C     -0.362997372400    -1.194576209164     2.987624598302
O      0.675242500117    -0.725064781749     2.242980701295
C      0.084571801325    -2.038368366345     4.107814646334
H      1.185994513023    -2.107790911649     4.113420712111
H     -0.281030743857    -1.575170673164     5.039614009090
H     -0.366682883928    -3.037906210640     3.979416776797
N      2.305814295982     1.205070483962     1.386573174981
C      3.314633727210     0.355357154446     1.759505656551
C      4.425218098654     0.854793851769     2.411642137780
C      4.516254046458     2.198673730628     2.708902723787
C      3.477223914548     3.016158990554     2.343607950451
C      2.365667480290     2.458405533935     1.685302895407
H      3.252928348571    -0.699867264744     1.520865641922
H      5.220572331830     0.184601989864     2.694804241147
H      5.385047041495     2.597758206349     3.225974349472
H      3.474115581961     4.066547515708     2.558634601492
O      1.394607760706     3.331180138744     1.404214387472
H      0.593340921860     2.890726479138     1.028555265336

