# STO-3G

title

0 1
C     -1.451034267520    -1.080374908494    -1.249697718603
C     -2.168502153494    -1.017608227931    -2.480194283975
C     -2.451343101285    -2.211492676562    -3.197400153776
C     -2.041183124685    -3.446723250812    -2.680661456134
C     -1.341196548664    -3.512229204048    -1.447226422610
C     -1.040000345845    -2.345032494750    -0.738116892976
H     -1.341146728516    -0.187562169663    -0.640852960194
H     -2.606454319338    -0.076342196375    -2.810642721103
H     -3.004617591538    -2.156664917981    -4.131197871362
H     -2.271333801042    -4.362597791780    -3.220403271240
H     -1.039140931633    -4.478273117778    -1.050480879697
H     -0.482045693860    -2.373727346807     0.192628558804
C      1.229601002828    -1.610851572737    -2.745868693188
H      0.600020558427     0.665751732630     0.038627419782
H      0.781296518790    -2.473674777925    -3.240974622422
C      2.367086298306    -1.660100585831    -2.026933343818
H      2.870021633072    -2.612375848698    -1.904739157190
C      2.980458465999    -0.540511222900    -1.297777391725
O      2.606555328773     0.639100790081    -1.538045765134
O      4.137602732785    -0.792633262788    -0.540137830490
C      4.623797027301     0.310406114393     0.235478306049
H      5.529329965672    -0.006007052092     0.795926710459
H      4.900619453784     1.166771758576    -0.420360412634
H      3.855232579012     0.635912876565     0.972165819881
Pd     0.031353220924    -0.061166369488    -2.885988984402
C     -0.295637177771     3.017283978884     0.000465023009
O     -0.481576228525     2.105177352969    -0.985983567728
O     -0.672051934757     4.199222827974    -0.016843228955
C      0.495938075797     2.401073855941     1.187905825155
H     -0.041806466076     2.672049770385     2.103955048402
C      1.890790799786     2.991598575102     1.251104291220
H      2.441716158903     2.577434053080     2.118085918509
H      2.436895078543     2.727632346609     0.320128798330
H      1.839184746935     4.096320668912     1.348014365781
N      0.619354355210     0.951293979179     1.017511840726
C      0.684527975922    -0.062002240697     1.910171706449
O      0.813834698507    -1.265090353288     1.561954802925
C      0.590831450919     0.272070316723     3.347814724173
H      0.672870813306    -0.665843371491     3.925916902362
H      1.423160266343     0.945295925995     3.603718011757
H     -0.389406103770     0.741896069673     3.534820407430
N      1.203365155976     1.117741455344    -4.082989283284
C      2.391393065757     1.021322043977    -4.746438051081
C      2.841877076787     2.094931556144    -5.491683022703
C      2.109503972717     3.264914796536    -5.557940392730
C      0.924868759769     3.341208360255    -4.868609225079
C      0.498614586165     2.228999367771    -4.111066589712
H      2.967425205722     0.104609961108    -4.698193480817
H      3.778374075122     2.016033713190    -6.018040160274
H      2.466341144360     4.109597219582    -6.140994728795
H      0.313489499647     4.220481349222    -4.868206690927
O     -0.622615897162     2.310314018946    -3.444862713636
H     -0.650651078950     2.382404464021    -1.977619646131

