# STO-3G

title

0 1
C      0.485458126311     4.065764426193    -0.048341875743
C      0.615235655732     5.417545059460     0.338782063456
C     -0.162432511723     6.415114888378    -0.278266623465
C     -1.072958320205     6.068898291459    -1.294752808445
C     -1.197530467743     4.722456221060    -1.690339969284
C     -0.419320590170     3.726330914630    -1.075752411260
H     -2.841220888568     0.801796841235     0.763847642533
H      1.316797191966     5.692109781329     1.125076884958
H     -0.057199843462     7.452111970569     0.031552362785
H     -1.674055446381     6.837438370682    -1.774679629970
H     -1.896091327164     4.441737758634    -2.473875963090
H     -0.529243557747     2.697273856717    -1.404973909154
C      1.314894695966     3.021610229526     0.664992804481
H      2.148286997254     2.649174380475    -0.166664205103
H      2.023350911369     3.469185783521     1.368568196222
C      0.641264976070     1.795506312249     1.185360415421
H     -0.422522667541     1.701601679187     1.020549479016
C      1.128896493819     1.148515997395     2.412989957563
O      2.357984172112     0.883402113286     2.479300792170
O      0.218595917825     0.691744819270     3.372408288227
C      0.741845235958    -0.202633799290     4.363919947770
H     -0.079734213541    -0.513535735498     5.045699133614
H      1.144610067980    -1.125494418567     3.887634500451
H      1.536711154369     0.289316386660     4.968249650779
Pd     1.835362771747     0.934865197911    -0.299479862242
C     -1.622115085270     0.051968795357    -1.152731323381
O     -2.313217959809     1.079115291512    -1.291727265567
O     -0.703570031125    -0.334055801795    -2.068253961067
C     -1.760331467821    -0.853524090317     0.093965951529
H     -0.776364216190    -1.200358675687     0.430350889222
C     -2.623072929421    -2.065923113308    -0.202262020758
H     -2.661586185527    -2.726069057926     0.688999503904
H     -3.654744258772    -1.731038098880    -0.439213083401
H     -2.208816291848    -2.640316420078    -1.055934123455
N     -2.408181417226    -0.046080405230     1.122409848177
C     -2.402248845740    -0.405073334432     2.431823486545
O     -1.862832600516    -1.446963635005     2.879871223722
C     -3.101549436623     0.501225423325     3.369870662860
H     -3.895988444664    -0.082160416836     3.862691072094
H     -2.359339354732     0.845181258826     4.107866508715
H     -3.534280445803     1.363971634913     2.833453363700
N      3.102971312414    -0.148529315445    -1.712857423879
C      4.204930711462    -0.154202593050    -2.521273107186
C      4.557543156068    -1.315142557152    -3.185677105937
C      3.809465111190    -2.469128018468    -3.040663034001
C      2.707258382090    -2.437035330069    -2.222257846161
C      2.393829174062    -1.233113440458    -1.562294408567
H      4.794118676622     0.747511466310    -2.642066167544
H      5.426747753130    -1.316230836880    -3.823665311790
H      4.088456034162    -3.381181305419    -3.562159615350
H      2.088667534021    -3.295998414003    -2.055999840986
O      1.326640024269    -1.179632815998    -0.778461585833
H      0.050382064265    -0.875926895432    -1.636591441552

