# STO-3G

title

0 1
C      0.671704609221     3.936233432248     0.100205609006
C      1.991511642778     4.336135698931    -0.209202520081
C      2.251874525792     5.185151718028    -1.301041731000
C      1.190098377940     5.654669110303    -2.099772168871
C     -0.130226612409     5.273245195909    -1.791559419357
C     -0.386020463754     4.420258238676    -0.700461589971
H      0.616760488266    -1.754390038836    -0.130964070493
H      2.818333036631     3.988790843121     0.410349075334
H      3.273695290436     5.489124265324    -1.519234310868
H      1.387714301355     6.317605524674    -2.939221163431
H     -0.957897869654     5.641110808970    -2.394443451043
H     -1.406660363336     4.122615817334    -0.468062228276
C      0.407677657700     2.965923327119     1.240725981764
H      0.963305040044     3.280944100604     2.139778184433
H     -0.653100123339     2.955089762820     1.507253236800
C      0.872995875976     1.542660807390     0.871159386739
H      1.864508702360     1.572412942565     0.429481002521
C      0.840767302277     0.473996855923     1.893037232921
O     -0.212606044122     0.313048716076     2.568029572454
O      2.063311517369    -0.059621236903     2.325469137948
C      1.978675916263    -1.289193575385     3.056881411238
H      2.997416651806    -1.597046881640     3.374535628171
H      1.347739696591    -1.180416836341     3.967474899841
H      1.575196269964    -2.099896864318     2.409264699935
Pd    -0.362902966378     1.050903035338    -0.717360235611
C     -1.081821365501    -2.493969033438     1.371992360437
O     -0.480349294302    -1.936032789501     0.322464149452
O     -0.668010151125    -3.407721415260     2.110302244264
C     -2.499288874279    -1.818349776128     1.617716167885
H     -2.578154051028    -1.589607691324     2.685478427723
C     -3.640493922370    -2.714905897669     1.203064889804
H     -4.605366620807    -2.196215061195     1.376969084241
H     -3.551124073925    -2.960254140111     0.124261700266
H     -3.618420844201    -3.654172037959     1.794608062435
N     -2.514977126959    -0.621870421785     0.764366400945
C     -2.716065143310     0.660306811288     1.030739558515
O     -2.153465566129     1.592796225462     0.339864290988
C     -3.626983166813     1.035249993897     2.120759677821
H     -3.172344280695     0.715241662429     3.074128730519
H     -3.748365452389     2.133104300539     2.117800936414
H     -4.599610299766     0.540709028237     1.952948518738
N      1.318522773707     0.536930306902    -1.707831027756
C      1.815921419965     1.494377785711    -2.551570931821
C      3.022793129216     1.298174169614    -3.185766943862
C      3.739898710442     0.140945511001    -2.982492188328
C      3.229439833197    -0.801396263782    -2.131714487849
C      1.991004310189    -0.579307513298    -1.483741374099
H      1.258659613726     2.409512848339    -2.716946741286
H      3.405452457969     2.060464918438    -3.843887701346
H      4.692770709900    -0.018200346382    -3.479918482172
H      3.743508699600    -1.717269346704    -1.918697456469
O      1.636567425188    -1.519814056016    -0.672205401502
H     -1.793955921076    -0.780913164024     0.038674222615

