# STO-3G

title

0 1
C      0.042348582979    -1.104870664649     3.580590055384
C      0.900228375252    -2.212723829153     3.325946456480
C      0.361921262823    -3.435166614953     2.914708348082
C     -1.042091473595    -3.583428395693     2.752587317535
C     -1.899339280147    -2.510826848400     3.014091774621
C     -1.369109827867    -1.257502721743     3.433150514607
H      0.440250385821    -0.191342448441     4.008780368088
H      1.971565159386    -2.105968025835     3.475417863503
H      1.016848713590    -4.282289685987     2.726042052170
H     -1.447644027582    -4.540949857974     2.435373091318
H     -2.975426464289    -2.630038355704     2.921066404364
H     -2.026899810886    -0.456698618555     3.754832947386
C      2.750142237665    -0.148572777139     0.690206443158
H      3.512883118189    -0.832711376171     1.055107937007
H      2.143035099208     0.349306076401     1.445233638580
C      2.541499305562     0.120077591321    -0.625229026551
H      1.745296797554     0.799733638983    -0.895147921541
C      3.288542931987    -0.480688583946    -1.742915546406
O      4.164088362622    -1.358175931743    -1.509211434083
O      3.038449821630    -0.026432731522    -3.050124859858
C      3.781478912242    -0.675745789452    -4.090879816685
H      3.500160116808    -0.237479008634    -5.072306567338
H      4.876041410994    -0.529909734742    -3.945854200719
H      3.553088233058    -1.765464710408    -4.116944774445
Pd    -0.563231680887     0.144475179747     1.605998690870
C     -0.794395255283     2.870772420156     2.943606723807
O     -1.117253717847     1.550527621586     2.897416378129
O     -1.171688240998     3.557757763978     3.914904444684
C      0.036878588098     3.430649270070     1.746402304270
H      0.899211660960     2.753651276338     1.609627545151
C      0.540368730616     4.829252790400     2.007921969149
H      1.154373281067     5.169940870402     1.148968913894
H     -0.327279925408     5.513579945567     2.117390941107
H      1.152493712927     4.856044701122     2.932765905324
N     -0.793310395450     3.509018631664     0.533575673186
C     -0.897470710585     2.461661409756    -0.209533351147
O     -0.290915692748     1.260273351995    -0.042931216678
C     -1.722652605265     2.598975055489    -1.415763912762
H     -2.744592548300     2.861620535481    -1.093799549618
H     -1.293295005113     3.417589414925    -2.017892131397
H     -1.716004243080     1.650586400265    -1.982945591547
N      0.081985065286    -1.507993238143    -2.004084741395
C     -0.557914480854    -1.508683756231    -3.214294923120
C     -1.943080080530    -1.468736148636    -3.261695460828
C     -2.682982120859    -1.440399933407    -2.094655348925
C     -2.009206555346    -1.439996210643    -0.898497035898
C     -0.600655706246    -1.471090340956    -0.932551209962
H      0.021185596449    -1.535672310315    -4.130053775340
H     -2.440495698443    -1.469197436752    -4.217715944218
H     -3.769214061554    -1.420349023028    -2.123867357888
H     -2.513910802076    -1.436424648675     0.044870319141
O      0.011689424384    -1.449850278187     0.300105050900
H      0.997174490583    -1.364540502163     0.195325327727

