# STO-3G

title

0 1
C      2.413380389532     2.740167658398     1.240519472696
C      3.274209938537     3.770817261390     0.799368902771
C      3.546492725193     4.875604252992     1.625466903186
C      2.959604779676     4.964263991904     2.903719500117
C      2.104725598424     3.938552975899     3.348704398577
C      1.832715161068     2.830029124059     2.523296260841
H     -1.500647452128    -1.845551684344     0.736623923623
H      3.735752214656     3.707626057237    -0.185116334656
H      4.214074870575     5.660621991608     1.277060029400
H      3.171917935047     5.817114805197     3.544260546631
H      1.655103683601     3.994040682217     4.337306832889
H      1.176340964788     2.036939314518     2.877428261541
C      2.108776735896     1.573521073644     0.313340344677
H      3.012301483135     1.079709520912    -0.057680407201
H      1.637907231024     0.763910810496     0.970716749424
C      1.173737322634     1.853673095670    -0.866806903911
H      1.574381639824     1.622992112421    -1.848158922984
C      0.251049116069     3.001181233616    -0.849616308279
O      0.000839114504     3.582759817238    -1.935919278132
O     -0.682935193763     3.029596722861     0.199987690671
C     -1.538800902525     4.179928203784     0.230841625256
H     -2.210153101487     4.117538037036     1.114335655375
H     -0.938519752866     5.114247487009     0.322766590570
H     -2.170706819184     4.234480075433    -0.684945813887
Pd     0.095868419022     0.265297889070    -0.200553249024
C      0.945543376921    -2.925091545526     0.140045826987
O      1.476070971787    -1.853280178519    -0.486111943819
O      0.871772540212    -4.080296561114    -0.321258181564
C      0.371081509576    -2.508505326586     1.529578533086
H      1.153405912801    -1.995162174135     2.097643052951
C     -0.166990534281    -3.668487508392     2.337684767559
H     -0.552224234506    -3.300389214180     3.310979513120
H     -0.993531843537    -4.156549785061     1.780998493524
H      0.637972263494    -4.409831296418     2.521559041564
N     -0.729910965545    -1.537977843457     1.323124659250
C     -0.892899999951    -0.432626537953     2.133685533214
O     -0.038150197649    -0.023083529129     2.952140763997
C     -2.177062586634     0.280824322002     1.988715812003
H     -2.984170426891    -0.421281851798     2.261784299079
H     -2.177047308556     1.146415231512     2.676201925468
H     -2.291845144747     0.617959400756     0.945803903131
N     -0.934297478660     0.086469027834    -1.975063384265
C     -2.064645235397     0.795904127547    -2.276054345570
C     -2.590768983709     0.750585838299    -3.547955053461
C     -1.986570168110     0.000658996736    -4.531982584080
C     -0.851695141874    -0.697749838152    -4.217411110219
C     -0.324648220443    -0.639108959677    -2.906789233060
H     -2.547377346164     1.392664387641    -1.511209784276
H     -3.479662448677     1.315825092140    -3.775307928852
H     -2.398812311394    -0.033328294736    -5.537034208902
H     -0.334350551790    -1.295475369270    -4.941486167823
O      0.757527324673    -1.316376865901    -2.719741378196
H      1.233289362229    -1.658431280800    -1.582128059951

