# sto-3g

title

0 1
 C                 -1.81534203   -0.81970545    0.04802106 0 2 3 1
 C                 -0.40732824   -0.80776200    0.05537975 1
 C                  0.31821835    0.40173730    0.01927156 1
 C                 -0.39331595    1.63342162   -0.02551756 1
 C                 -1.80398941    1.60990315   -0.03255541 1
 C                 -2.51817772    0.39692499    0.00376907 1
 H                 -2.35276172   -1.76485950    0.07642676 0
 H                  0.13666381   -1.75000081    0.08961921 1
 H                 -2.34848248    2.55185208   -0.06681796 1
 H                 -3.60576846    0.40414178   -0.00245265 1
 C                  1.83657968    0.37993975    0.02845077 1
 H                  2.25380739    0.86030476   -0.86805507 1
 H                  2.24396959    0.91886667    0.89576072 1
 H                  2.21584638   -0.64728810    0.06472679 1
 C                  0.34679127    2.95882393   -0.06526851 1
 H                  0.98896455    3.09058313    0.81728224 1
 H                  1.00003404    3.03154215   -0.94651981 1
 H                 -0.35369616    3.80062114   -0.09782351 1

