# STO-3G

title

0 1
C      2.549355844427     1.501252051139     1.659215383929
C      2.688170567163     2.594579421030     0.778444392279
C      3.289211729023     3.793213382420     1.222177409898
C      3.750948293850     3.910251927082     2.546614186867
C      3.608952038097     2.819264980598     3.428214674943
C      3.013672298408     1.619377445629     2.988763682884
H     -0.665772198936     2.074869887697     3.154926003519
H      2.341495141789     2.524571897049    -0.249976201770
H      3.396214857472     4.627303702591     0.530781842328
H      4.214271118645     4.833878347072     2.886441386310
H      3.958887100043     2.901084988637     4.455937316182
H      2.902856764563     0.791015626579     3.684716858693
C      0.559993674667    -2.560227942637     3.303140712166
H      0.554952242368    -3.637318736432     3.155596384218
H      1.530015126978    -2.103502560937     3.482616491997
C     -0.547552445118    -1.795182243112     3.185224107342
H     -0.459366431237    -0.723106656437     3.268696095182
C     -1.886462985852    -2.301498177791     2.845457664950
O     -2.128374137639    -3.538560791459     2.894130702675
O     -2.886230247808    -1.372064888596     2.502038881226
C     -4.105116118099    -1.933629160229     1.995640724979
H     -4.811950001617    -1.116118666862     1.740238867652
H     -3.910902375256    -2.523002592958     1.069414900579
H     -4.586678487930    -2.588880963015     2.756366230054
Pd     1.795252144832    -0.230954785730     1.045537916096
C     -1.342923616846    -1.298842730067    -0.666444880545
O     -0.757806405885    -2.345164017651    -0.056358859089
O     -2.519480302976    -1.340554390327    -1.068118661227
C     -0.549078543706     0.057113961256    -0.805286969238
H     -1.269068469010     0.748635294300    -1.260279872144
C      0.649362925942    -0.036066874705    -1.720625896925
H      1.142121943577     0.955100616047    -1.791202347539
H      1.380231301132    -0.777612955129    -1.347832739787
H      0.322968253091    -0.342779704355    -2.736425689681
N     -0.066622423298     0.523194202275     0.514706185336
C     -0.778631164983     1.187409686043     1.354610622886
O     -0.285627317632     1.362752275995     2.607760831026
C     -2.135833101709     1.692343103726     1.043534295001
H     -2.060384668767     2.425194076805     0.223394854866
H     -2.773915352776     0.833043676418     0.770406690570
H     -2.567191876638     2.178274333107     1.936347253834
N      3.446633253668    -1.403563351923     1.337854446796
C      4.727803572098    -1.341836042139     1.802650405212
C      5.506069833115    -2.484327268537     1.796396991792
C      5.003559369965    -3.681793516103     1.321103054365
C      3.714950666654    -3.714875229162     0.848208466837
C      2.950444065469    -2.530558485837     0.866746660835
H      5.125633146258    -0.406397486787     2.179048121312
H      6.516461540719    -2.436227339519     2.168377167914
H      5.617513404768    -4.578601041082     1.319041109096
H      3.263810022494    -4.606848914501     0.462666983698
O      1.735626469510    -2.545556217536     0.413582670435
H      0.235760636174    -2.378695419329     0.159972354111

