# STO-3G

title

0 1
C     -0.375236493551     1.836738926348    -2.146967069697
C      0.410762045222     2.957888073625    -2.508936903712
C      0.021931776453     3.782882108767    -3.585764901971
C     -1.142960149931     3.490164433317    -4.319044819975
C     -1.925521314980     2.373520290995    -3.964414045818
C     -1.549956910197     1.554050947996    -2.881032551081
H     -0.801805891190     2.825070962714    -0.285312130499
H      1.320901069530     3.194110476344    -1.961093573751
H      0.627811676745     4.648414724688    -3.846033354949
H     -1.440346656333     4.123883841805    -5.151142831208
H     -2.829195803401     2.141384783713    -4.524388665901
H     -2.172311957678     0.702609263108    -2.616860925967
C      1.846275771075     1.997233328511     1.770681347610
H      2.433984502936     1.132224191759     2.066005990871
H      2.096790558220     2.430914112983     0.805280427935
C      0.822047879875     2.479534843528     2.510059360154
H      0.218949755423     3.296708551285     2.138237998777
C      0.388413853473     1.916256800512     3.797261231319
O     -0.713817014052     2.291820137914     4.280221950185
O      1.200351100006     0.981250508980     4.464567591132
C      0.599264691578     0.326061225218     5.589847480557
H      1.322254828502    -0.397252960184     6.022994892383
H      0.323365507540     1.062011513078     6.378260023071
H     -0.307224394446    -0.241466475807     5.275845448893
Pd     0.263531652587     0.603967444224    -0.709172780373
C     -1.276567505684    -1.069286827487     2.288680317592
O      0.063850265437    -0.997701007535     2.426853091251
O     -2.015458502039    -1.371200144529     3.240120278166
C     -1.924157423389    -0.692617433910     0.904584178197
H     -3.004600355890    -0.724987433428     1.090246863666
C     -1.615151336534    -1.689986847652    -0.188492153061
H     -2.116670069060    -1.380757234832    -1.128685841431
H     -0.525555130876    -1.760982315918    -0.366045548098
H     -1.992111157521    -2.693486497305     0.100596201373
N     -1.479922399926     0.637275596815     0.426599460678
C     -1.995507525761     1.763518708902     0.809083664018
O     -1.521650492404     2.943714782181     0.391936578462
C     -3.117032186690     1.855710575719     1.759493683132
H     -4.005733981726     1.381605366426     1.313469663949
H     -2.819580291968     1.372418027926     2.707272898922
H     -3.332800185860     2.921937949891     1.960455729673
N      2.140612827504     0.227721355629    -1.452366492857
C      2.963267761329     0.508010007381    -2.504488490924
C      4.221201282084    -0.063672602736    -2.551846915547
C      4.650236861523    -0.917941991438    -1.552434769522
C      3.798282458831    -1.195667712600    -0.511974110258
C      2.522145119737    -0.598161162784    -0.499404418003
H      2.634296225179     1.178108789776    -3.290210813962
H      4.872437639087     0.162358245658    -3.380484943570
H      5.640100671806    -1.364995560432    -1.592563996366
H      4.062023862561    -1.855082357148     0.290103822253
O      1.694545124804    -0.864906522996     0.464142221774
H      0.682922250246    -0.899101086263     1.634539502026

