# STO-3G

title

0 1
C     -0.120307997818     1.766666510061    -1.545750172477
C      0.843915158132     2.797154272738    -1.602638308093
C      0.538022966352     4.000209320800    -2.274025166374
C     -0.707940018500     4.172387810229    -2.905377437964
C     -1.657911081997     3.133964982685    -2.860891627473
C     -1.369984586785     1.931205021613    -2.182029981767
H     -0.045672945384     2.155688959430     0.785389492337
H      1.817796509970     2.662158411462    -1.138501834627
H      1.283632256364     4.791850997184    -2.307294753473
H     -0.934011111191     5.098987331817    -3.427659128945
H     -2.622132915396     3.254398524169    -3.350671211762
H     -2.119678273178     1.146321036157    -2.163707956291
C      2.044954296601     0.177576475444     2.395448432382
H      2.459484920911     1.080763799077     1.961535691968
H      2.422472757042    -0.735434909178     1.937335150763
C      1.127573501552     0.146043766775     3.393510664026
H      0.734782495492    -0.798907122984     3.751892067734
C      0.593172232767     1.339716661492     4.067742955941
O     -0.455269893601     1.214433870313     4.757735069478
O      1.240861268725     2.578980912387     3.932222822788
C      0.522871205567     3.718472933057     4.422166394562
H      1.129924702672     4.633103136246     4.250429500769
H     -0.439671859384     3.838182069344     3.874659154363
H      0.327696214721     3.627262246038     5.514312067115
Pd     0.290503261504     0.070126360793    -0.569581987338
C     -1.183084052508    -2.320607301224     0.881336884371
O      0.113858201515    -2.015533084008     1.269900022180
O     -1.515939539823    -3.479729128926     0.643572716136
C     -2.155202554563    -1.102027277913     0.769338212921
H     -2.843426397768    -1.193198988984     1.625222677325
C     -2.968300469845    -1.161145774501    -0.502635819184
H     -3.631251120096    -0.273207340760    -0.566006648265
H     -2.296650015569    -1.175999874520    -1.384542874401
H     -3.596809251064    -2.077052052189    -0.514016796799
N     -1.381152530393     0.146510236168     0.744071083858
C     -1.600691292516     1.202622799056     1.460471169526
O     -0.789541502901     2.261514320480     1.438224525893
C     -2.745396786325     1.325789397782     2.377773036027
H     -3.676175929246     1.183469806683     1.804321814462
H     -2.632796318395     0.584107507492     3.186478468124
H     -2.739984148370     2.337803830543     2.825687796846
N      1.944620861520    -0.213949717838    -1.663026035105
C      1.936217267707    -0.914890109745    -2.835491368098
C      3.111100218619    -1.119406706299    -3.524961220506
C      4.302543573539    -0.614322514305    -3.053130291309
C      4.296959019734     0.108563809601    -1.890484149194
C      3.082640565526     0.331245081282    -1.193650572500
H      1.007042926914    -1.328040865634    -3.209991659338
H      3.094966616946    -1.682471199487    -4.443341253477
H      5.228193552059    -0.777003431625    -3.598622284702
H      5.186663464995     0.548179513067    -1.487616104991
O      3.132469892292     1.054856224146    -0.150394862878
H      0.255906941300    -1.106239375485     1.644559941319

