# STO-3G

title

0 1
C      2.600803859220     1.337236915148     1.511477456241
C      3.700204988018     1.272174688415     0.625588283417
C      4.547093570253     2.387891767752     0.466403858875
C      4.314300609171     3.570678253795     1.193685695046
C      3.219391241429     3.635650655006     2.074657704342
C      2.358177918998     2.528357286196     2.230626700925
H      0.243811423155     0.758800714215     3.483615920343
H      3.899178230928     0.366639799590     0.059216735456
H      5.384949639273     2.327351203473    -0.225450750170
H      4.971660825295     4.428302849367     1.071960948057
H      3.024209906343     4.545922781144     2.638180638779
H      1.511510355430     2.623632137802     2.905404925035
C      0.416111882830    -2.310235050722     3.325037665926
H      0.876360217471    -3.172811860554     2.850672954258
H      1.054653708628    -1.732956670510     3.987189140398
C     -0.893139326656    -1.994352641742     3.146131215301
H     -1.309346796138    -1.113702407839     3.615835672468
C     -1.846064102965    -2.783356201147     2.349759764252
O     -1.557484082477    -3.962357633277     2.008139440115
O     -3.124632183324    -2.245608963417     2.119984658424
C     -3.959209650846    -2.996469974021     1.227137822111
H     -4.925811542442    -2.466599713170     1.091438694919
H     -3.477623381528    -3.093760460701     0.226489377087
H     -4.167940668739    -4.010552064091     1.636667648887
Pd     1.399092511389    -0.254972792455     1.734133350411
C     -1.295556864879    -0.777535204540    -0.502798183561
O     -0.598039675326    -1.866331873186    -0.150148388007
O     -2.445557296652    -0.842573191351    -0.975486276682
C     -0.691232852073     0.648123377407    -0.216690297460
H     -1.476884460792     1.352066181554    -0.515918126422
C      0.544682324991     0.936832683506    -1.035097755530
H      0.929196795456     1.948678850832    -0.786922527066
H      1.334442548486     0.188290446695    -0.829717943227
H      0.297740520834     0.905499390719    -2.116803378574
N     -0.323594405571     0.771668652535     1.206940421270
C     -1.025103138984     1.312426353556     2.141286937407
O     -0.616230339995     1.266810278080     3.428966856986
C     -2.320378459378     1.966238205841     1.911108286376
H     -2.164390513970     2.829109600016     1.242509223461
H     -3.008314443078     1.223468785228     1.468510094819
H     -2.727087468009     2.313842266148     2.878993639520
N      2.998591716180    -1.502244693563     1.812800930602
C      4.138560182141    -1.451979611076     2.563712290587
C      5.118187349232    -2.404847062482     2.381313394487
C      4.961850687167    -3.408005142592     1.447816701301
C      3.815286834785    -3.434319813080     0.696817026882
C      2.822651226965    -2.448285386691     0.895164972850
H      4.267389649338    -0.667716075082     3.300861379195
H      6.014392484365    -2.362679058720     2.978559849265
H      5.733423662458    -4.160514139765     1.307693538180
H      3.635579498815    -4.186759467733    -0.045122408163
O      1.777937486420    -2.514970935695     0.150411453976
H      0.436637943130    -1.997224281766    -0.001817762076

