# STO-3G

title

0 1
C     -0.350961619609     1.669834889216    -2.120330290022
C      0.201429711399     2.947475551409    -2.363368598510
C     -0.269124783797     3.731441774498    -3.436108447317
C     -1.291751405458     3.248288087434    -4.277742802586
C     -1.842457896447     1.975847811478    -4.035894047792
C     -1.376263648329     1.187545922916    -2.960487467673
H     -2.017039797207     3.475669456213     0.590974621827
H      0.984381420611     3.338433331274    -1.717608150493
H      0.160708566702     4.716211255731    -3.611757906313
H     -1.651939610359     3.853116242013    -5.107041067705
H     -2.630875296948     1.590686967625    -4.680286367358
H     -1.813066941828     0.205469507715    -2.795518859285
C      1.513795554453     2.296469552225     1.646390875911
H      0.564493304482     2.806075877904     1.521177655553
H      2.187949770907     2.336991112981     0.794693907216
C      1.858688257538     1.604309869957     2.756305810219
H      2.807217461068     1.085639092987     2.793080936416
C      1.010703324282     1.430096884720     3.945614349224
O      1.518685677030     0.923049747062     4.981525575969
O     -0.326923152793     1.874756704081     3.929280323868
C     -1.096256787066     1.562387342592     5.099104985507
H     -2.126175820645     1.960291009414     4.983179189598
H     -1.161683788267     0.458769346227     5.242596417247
H     -0.645228772197     2.025987085550     6.005646372125
Pd     0.409004624514     0.556570025813    -0.660327205486
C     -0.950464729193    -1.240879152969     2.302386266757
O      0.385664960629    -1.133002848436     2.406485902083
O     -1.670780019195    -1.510024744929     3.280796021010
C     -1.644489046616    -0.944047977210     0.918382602624
H     -2.714360967081    -1.090198910971     1.111974243937
C     -1.235059863591    -1.895847355607    -0.181524184076
H     -1.783567320378    -1.645992585886    -1.112627456624
H     -0.147596837383    -1.838890637862    -0.376035314216
H     -1.487319097057    -2.936978737681     0.109770731110
N     -1.333415501323     0.428436899763     0.457476203234
C     -1.945018227463     1.485922922878     0.860131150622
O     -1.442222396297     2.693689110975     0.498070750400
C     -3.139412854101     1.441493052224     1.736264501320
H     -3.953766485509     0.932784288288     1.194466702679
H     -2.870828309267     0.909498115045     2.665079874701
H     -3.452270818321     2.467899110591     1.996069027543
N      2.294802026388     0.339127840848    -1.419454064549
C      3.058577744977     0.732311208552    -2.479386845847
C      4.371443811562     0.307998209021    -2.562177525832
C      4.914305323891    -0.510589102579    -1.588968051205
C      4.121633947134    -0.900675677547    -0.537886496086
C      2.785963167559    -0.451703269219    -0.485712015041
H      2.638631379547     1.376147451074    -3.243680906332
H      4.975747725760     0.622621894184    -3.397273711771
H      5.947459015944    -0.841168067153    -1.656091453420
H      4.476826976638    -1.536190761190     0.248001694780
O      2.027685492127    -0.821763052829     0.497831570802
H      0.997408925408    -0.979779552118     1.607211528660

