# STO-3G

title

0 1
C     -0.538751296840     2.121543293133    -1.836958186398
C      0.241088385677     3.298402285734    -1.881352878030
C     -0.227272912644     4.426163580122    -2.587650043549
C     -1.465465713999     4.382547788714    -3.257419594227
C     -2.240421929098     3.207356320687    -3.211355437881
C     -1.783969173492     2.078326274987    -2.498951004289
H     -1.838920804050    -0.117870061105     3.020079172090
H      1.197772535370     3.347405093940    -1.365525011756
H      0.373358034383     5.333628087035    -2.609444519675
H     -1.823325119259     5.252581194699    -3.803216906273
H     -3.200250689468     3.166403827112    -3.722775559636
H     -2.397499248597     1.181496979522    -2.461462793459
C      1.865075923928     0.734719532008     1.929378076190
H      1.920360226570     1.724481117570     1.480148964235
H      2.226233304461    -0.085510713323     1.316961530738
C      1.368587763666     0.510166189690     3.169400303141
H      1.323136398392    -0.498686019423     3.553677536649
C      0.825271613966     1.551053654522     4.057834618653
O      0.769822861795     2.748477711075     3.657895221537
O      0.466398523552     1.203895558298     5.371342894277
C     -0.216110541076     2.218302889601     6.119682815116
H     -0.463286562197     1.824680532010     7.128731738988
H      0.424717395732     3.120314886155     6.242698086669
H     -1.168678562510     2.500908136479     5.615788973423
Pd     0.153118951047     0.525202582538    -0.891161402544
C     -0.733011696377    -1.744250419002     1.831920218666
O      0.437982433489    -2.280912988301     1.519026118384
O     -1.113076320190    -1.640430037188     3.032271612027
C     -1.687186036253    -1.106999821262     0.759411389832
H     -2.687614352543    -1.163667787063     1.211497507809
C     -1.737442339793    -1.804130305693    -0.579238172356
H     -2.505019320377    -1.317528418115    -1.216382837509
H     -0.766450088593    -1.756476577881    -1.100662631445
H     -2.016391547259    -2.868889666298    -0.436733910118
N     -1.337121486955     0.319681102224     0.530613916651
C     -1.581407349533     1.156389432393     1.498688889274
O     -1.996093439031     0.841561361179     2.732089015756
C     -1.408554036717     2.584930461765     1.238432307401
H     -2.078202495878     2.871674331425     0.410430194614
H     -1.670046273440     3.148532587938     2.152473091104
H     -0.353227849409     2.774897987530     0.988026159349
N      1.824839371457     0.203455874232    -2.036316324237
C      2.488801242572     0.763351827666    -3.089775794061
C      3.636498510307     0.159011264818    -3.566752900621
C      4.115333797015    -1.003875761818    -2.993053107167
C      3.424113744926    -1.551570756447    -1.940726723177
C      2.256239443857    -0.908872105443    -1.482959325210
H      2.119197956377     1.675593561981    -3.543676943378
H      4.161620492882     0.603766374806    -4.396491355779
H      5.018843852558    -1.476602059651    -3.369289679954
H      3.737805926171    -2.452725647039    -1.453546381145
O      1.590011370437    -1.423683844245    -0.495171528019
H      0.909304897368    -2.028227662570     0.635398197711

