# STO-3G

title

0 1
C     -0.677822062180     1.733845992298    -1.394786343812
C     -1.681965797558     2.730229962315    -1.387867818769
C     -2.083498611338     3.349433581394    -2.589882017382
C     -1.499077736942     2.972764692189    -3.814363890413
C     -0.503668229242     1.976995779027    -3.827347967700
C     -0.088677849832     1.365192818926    -2.625851008663
H     -3.071570909405     2.566146235961     2.539407327642
H     -2.145580270501     3.032351661948    -0.451549707230
H     -2.851984340777     4.120434626948    -2.567190849304
H     -1.813803803546     3.446409772607    -4.741647033977
H     -0.045995628007     1.674918933113    -4.767760982257
H      0.689960586686     0.606870927181    -2.658097696643
C      0.387232205425     0.235719802147     2.844876006194
H      1.137693788731    -0.546464494428     2.807449413523
H     -0.627833678350    -0.101763216639     3.021749525707
C      0.680588020524     1.568002114221     2.752399605806
H     -0.110592938606     2.302125422749     2.808499572112
C      2.048520061824     2.105835175892     2.677210339265
O      2.204877425169     3.342334027654     2.491460584066
O      3.149741813827     1.235248946298     2.775559612283
C      4.444134997645     1.841313945261     2.661531615576
H      5.224955999352     1.055402725050     2.746129978215
H      4.562105073549     2.340288540132     1.673894913691
H      4.605646600614     2.584538406401     3.474589133090
Pd    -0.122978627183     0.985853579788     0.393090376810
C     -1.410188536719    -2.157401591039     1.305730230124
O     -0.081869814344    -2.204732921544     1.269595509678
O     -2.092411550558    -2.805223521631     2.129464033485
C     -2.200313042202    -1.201041311971     0.324471998989
H     -3.238596280170    -1.549692777064     0.382376493275
C     -1.751911212370    -1.289337942141    -1.113313381987
H     -2.344287816000    -0.582726964200    -1.732038463340
H     -0.678781932248    -1.041860059931    -1.208433669937
H     -1.911834962973    -2.318590509949    -1.496113408755
N     -2.034229347810     0.195284926637     0.780175944706
C     -2.848688210799     0.837789457589     1.528807395822
O     -2.443279436550     2.063122595572     1.988907012458
C     -4.163412419776     0.302433244724     1.949685825525
H     -4.775929282715     0.137296551473     1.046955378243
H     -3.995280355920    -0.639298054841     2.502760208133
H     -4.676125394824     1.022403158004     2.611207255183
N      1.814037025837     1.117834530299    -0.189246146021
C      2.478175880022     2.232648468684    -0.619832180029
C      3.758641061961     2.115764403554    -1.118258810139
C      4.379786410003     0.887562178934    -1.182184799487
C      3.694209315909    -0.218720866256    -0.753328241342
C      2.376231179353    -0.083895959815    -0.257343281949
H      1.999353101772     3.203582066828    -0.562348097824
H      4.275040188702     2.999874129107    -1.454256612638
H      5.390612863094     0.797126543537    -1.570568763947
H      4.119957870296    -1.201199322597    -0.786993552846
O      1.783197116914    -1.174612526226     0.077344758305
H      0.624109715477    -1.647644653537     0.678890540199

