# STO-3G

title

0 1
C      2.656865301920     1.184752081657     1.311891429373
C      3.750048762477     0.902988757152     0.460642081406
C      4.674504640067     1.915894292280     0.134295018270
C      4.527686902165     3.213563800522     0.660283681446
C      3.439897758505     3.496563506882     1.506393721651
C      2.502025072696     2.491832087001     1.826539115459
H      0.350070133583     1.056153227290     3.392124535709
H      3.884661307767    -0.092698893875     0.047327777079
H      5.505759640268     1.686163147254    -0.529456769243
H      5.245138847095     3.991590468268     0.410422684157
H      3.309873260122     4.497087056262     1.914223904494
H      1.663108947598     2.754359238978     2.466618036420
C      0.089775382173    -1.583428775110     3.690411429146
H     -0.445271660279    -0.803886031178     4.227471619743
H      1.104459896658    -1.794126068090     4.005344883461
C     -0.528947676288    -2.382661556576     2.773366926544
H      0.008831653341    -3.194172079034     2.305303068769
C     -1.947537268552    -2.275088806588     2.388683076592
O     -2.604492991094    -1.239645496237     2.689294627573
O     -2.554535854631    -3.364009150417     1.740757018471
C     -3.905607326729    -3.160937982665     1.304826472423
H     -4.268417819748    -4.079091808126     0.795577232790
H     -4.574679594353    -2.950819677348     2.169251660811
H     -3.963154855007    -2.320709615297     0.576246306254
Pd     1.339236698757    -0.258003856160     1.797924908702
C     -1.244393129221    -0.837534092134    -0.530684279010
O     -0.517510849820    -1.902182843002    -0.167448630380
O     -2.374469467254    -0.949236283967    -1.043353077846
C     -0.703800346502     0.613712162883    -0.258102089637
H     -1.528456124837     1.267940187032    -0.564150237493
C      0.499207420027     0.943242961298    -1.110474190562
H      0.862475406915     1.964868467428    -0.870374545088
H      1.313355266644     0.215609436080    -0.927821296772
H      0.224291664550     0.906231738631    -2.185260504028
N     -0.314878053617     0.809274630493     1.150969759776
C     -0.968571018274     1.469589680944     2.047229032994
O     -0.495258780639     1.584003744536     3.308273054984
C     -2.250940120456     2.140424212023     1.792931355286
H     -2.099180550619     2.920219595707     1.029104700089
H     -2.975238884228     1.372275903732     1.467318329250
H     -2.608350680571     2.600637063639     2.732617730821
N      2.869151644569    -1.564475764824     2.071824060643
C      3.961295257020    -1.471690931885     2.887269899044
C      4.932581072032    -2.448958313251     2.841073238953
C      4.818036631292    -3.517185714897     1.976698238932
C      3.723792883397    -3.582184485126     1.153431581671
C      2.742369177799    -2.566583292859     1.207132760201
H      4.054814348276    -0.638167697013     3.573942583980
H      5.789289145329    -2.373738279047     3.490815491127
H      5.583358960926    -4.288170241615     1.943349618634
H      3.584528124269    -4.380385124272     0.451868046358
O      1.758866765429    -2.668512843040     0.386914986990
H      0.502887911692    -2.030739882524     0.077486426195

