# STO-3G

title

0 1
C     -0.494128433298     2.006486968553    -1.097638247719
C      0.372676675483     3.105151552778    -0.881620005713
C      0.018852928792     4.391195706375    -1.342265751633
C     -1.191106051103     4.588559835542    -2.033279303932
C     -2.052813404893     3.495633679694    -2.254529351014
C     -1.711757039138     2.211048170066    -1.785148083179
H     -0.748547724425     1.987004783723     1.030415527443
H      1.316807962971     2.968752523821    -0.357005679704
H      0.688334122865     5.229260852679    -1.160575739544
H     -1.461948069946     5.578614120823    -2.392238489097
H     -2.990642078698     3.640575440871    -2.787069928255
H     -2.392052315322     1.379859260596    -1.954991951543
C      1.825442671785     0.382804022698     2.006934717033
H      2.371726574318     0.944752793371     1.252426367099
H      1.827186335612    -0.695230774311     1.883430466809
C      1.179736404458     0.961605596623     3.046046097371
H      0.648815438758     0.344648814178     3.758854173162
C      1.100933358491     2.411081365910     3.284288699507
O      0.579052400987     2.825656951401     4.354184042695
O      1.690039216956     3.301128826573     2.364298273149
C      1.404635302023     4.689836786452     2.577218247317
H      1.904447846957     5.293709872275     1.790620098506
H      0.307911372822     4.877074034776     2.514742670336
H      1.782949243075     5.025219858755     3.569503866456
Pd     0.081073733187     0.177178531986    -0.537954015813
C     -1.333538337096    -2.600106773088     1.522219734210
O      0.019075443437    -2.630967291952     1.529887024690
O     -2.007575532174    -3.253444652009     2.334268285937
C     -2.069928596764    -1.631912455976     0.522526852284
H     -3.130408185335    -1.721281817442     0.788252970759
C     -1.928325737726    -2.028581735048    -0.929152311062
H     -2.483851897740    -1.309397709382    -1.566548235580
H     -0.867896334483    -2.039641734741    -1.241113400912
H     -2.352758869275    -3.042607052943    -1.084902653986
N     -1.572342793282    -0.242303014571     0.656237312956
C     -1.975773501863     0.588122131194     1.567635313410
O     -1.438611820253     1.800995046792     1.721663912411
C     -3.039982171564     0.268705823715     2.536126590079
H     -3.982555507464     0.109530213954     1.987687176324
H     -2.741902763255    -0.622759250405     3.114272194917
H     -3.163641099355     1.122048265126     3.230065797397
N      1.850849130551     0.116185139260    -1.570985175155
C      2.616218857940     0.849607839645    -2.430297629027
C      3.816708340791     0.330786631545    -2.878664251581
C      4.245573035324    -0.919121903657    -2.471010841867
C      3.451458529558    -1.641932489866    -1.614914415203
C      2.233118140581    -1.082278229306    -1.180927653805
H      2.286615184699     1.830825004890    -2.751787037421
H      4.423357550518     0.912733253814    -3.553246421632
H      5.190634237220    -1.323129632950    -2.824445422294
H      3.719868101887    -2.618263286075    -1.265355275835
O      1.463497056239    -1.757826377674    -0.382806563141
H      0.558772051067    -2.253522250917     0.762394454350

