# STO-3G

title

0 1
C     -0.601016130006     2.038724194036    -1.859238607512
C      0.081931835612     3.273458137949    -1.923729477329
C     -0.448135309486     4.330826415617    -2.692555317640
C     -1.650867067060     4.159357989778    -3.405177263410
C     -2.328717099944     2.926501876240    -3.339911851750
C     -1.810680860019     1.867253327623    -2.565252373347
H     -1.865345823825    -0.160363437606     3.018537712449
H      1.010228736656     3.421110661915    -1.376090246090
H      0.076829475766     5.283591639571    -2.729678034959
H     -2.056098502820     4.975499787913    -3.999030170916
H     -3.260462395941     2.786837850693    -3.884789403651
H     -2.349661614369     0.924372389909    -2.513484279941
C      1.938808286165     0.239396427501     2.550771779483
H      1.849110234510    -0.435074292587     3.397704151753
H      2.401065959754    -0.173559399024     1.659099395896
C      1.451091688871     1.500526645601     2.547360080146
H      1.529782667566     2.099617043358     1.648500322263
C      0.765487393838     2.139646437040     3.681402115895
O      0.301919104097     3.301624729151     3.522856879195
O      0.694324039360     1.485765808546     4.923406316002
C     -0.223114400242     2.049218988915     5.869576936426
H     -0.211124798432     1.439567370370     6.798203487353
H      0.064003950259     3.092603346853     6.130657706590
H     -1.260621461690     2.035154858096     5.462590751220
Pd     0.178659983197     0.537570598067    -0.829613116890
C     -0.613188878078    -1.745086541758     1.907099469967
O      0.562073723657    -2.291450046170     1.624709538837
O     -1.006755027875    -1.586170574824     3.096521900447
C     -1.580846880140    -1.205408230352     0.793259698888
H     -2.585982267979    -1.333957231768     1.220972296089
C     -1.538721786449    -1.935757796038    -0.528094716514
H     -2.332018110591    -1.535152139463    -1.193039922144
H     -0.564178873578    -1.811420153978    -1.030370310751
H     -1.724233367953    -3.017794954022    -0.364870388175
N     -1.354012222113     0.240677960491     0.530890927322
C     -1.727582022232     1.079312110828     1.455834028016
O     -2.134706494062     0.763929580134     2.690539281735
C     -1.745332266496     2.505192758103     1.128934374879
H     -2.430537750104     2.656641209288     0.278016146910
H     -2.102584025319     3.069971985651     2.009667385205
H     -0.724749158126     2.831039226944     0.878365112495
N      1.924473279985     0.315842394877    -1.889823812624
C      2.594535032471     0.879929515548    -2.937085142853
C      3.792865540812     0.329295921435    -3.351204639461
C      4.316781944301    -0.783631111415    -2.720120625450
C      3.619512982363    -1.336646904558    -1.674368392643
C      2.399991846367    -0.748949606244    -1.282777075064
H      2.189706688793     1.753228866978    -3.435429934066
H      4.322412845991     0.777199169113    -4.176444683927
H      5.260090107158    -1.213571443140    -3.046850971666
H      3.967070675385    -2.200261562417    -1.144286832658
O      1.723685692336    -1.263653174987    -0.300308635791
H      1.063048927366    -1.996566276537     0.770400471807

