# STO-3G

title

0 1
C     -0.781952384736     1.917160794442    -1.975700211401
C     -0.178100196652     3.191872752008    -1.919152102821
C     -0.678876821076     4.240249210502    -2.719383125646
C     -1.769786946672     4.018525648849    -3.581679922263
C     -2.366761485392     2.744119737972    -3.634702544155
C     -1.879831720478     1.692229143591    -2.830338502851
H     -0.982304190270    -0.727163273420     2.550619741336
H      0.663840230717     3.378123738595    -1.255745905963
H     -0.217121721008     5.224236399945    -2.663902490020
H     -2.152126392632     4.827644347715    -4.199671740582
H     -3.213841438875     2.565061215132    -4.293958134704
H     -2.360811779402     0.719163523322    -2.873667718163
C      2.137283623088    -0.211898074281     3.083681069715
H      2.271888887150    -0.471203034034     4.129856134354
H      2.437214988992    -0.953459787375     2.348837702102
C      1.610128514650     0.962883457600     2.672529346864
H      1.478644986595     1.144518223744     1.612013120348
C      1.171763074416     2.044895224872     3.565743357792
O      0.741669666839     3.112446571680     3.049759348488
O      1.338949738671     1.922516246316     4.957991024699
C      0.856306068919     3.019179638889     5.745911198026
H      1.034360828602     2.804511833361     6.821525279139
H      1.391685577529     3.960091738206     5.485187469142
H     -0.238285177183     3.159720879668     5.596647054067
Pd    -0.055831803853     0.450704766508    -0.862749794262
C     -0.980004224696    -2.412260199400     0.636114812597
O     -0.153053177197    -1.836817300324     1.613740149899
O     -0.784595785776    -3.523982838444     0.151776385016
C     -2.157822377406    -1.451539240260     0.315659579950
H     -2.901537878338    -1.596372641077     1.118489056606
C     -2.808424383202    -1.758218391180    -1.010284796882
H     -3.650064918887    -1.055751000835    -1.184826720536
H     -2.066581657232    -1.646747437469    -1.825995147899
H     -3.200302057824    -2.797010370750    -1.013173182383
N     -1.765619864682    -0.023515087467     0.274438815207
C     -1.652667571190     0.655981219027     1.387660174899
O     -1.517247350392     0.134847257733     2.618135826752
C     -1.699157757929     2.115995206512     1.298689233856
H     -2.583386904243     2.398098144022     0.700920632162
H     -1.781071807217     2.532967790778     2.318570402322
H     -0.774326025601     2.480517042956     0.826782736348
N      1.872722132292     0.472465759301    -1.555666084363
C      2.621061224991     1.104640725979    -2.506431440065
C      3.957484835372     0.781971997952    -2.643786342660
C      4.541029269738    -0.176234544625    -1.836737578880
C      3.765322607170    -0.806255636263    -0.895699991321
C      2.403537276997    -0.456033159060    -0.784377647874
H      2.170274091755     1.857587705372    -3.142505005159
H      4.547768906625     1.284804689419    -3.392355642420
H      5.591965425183    -0.429726679641    -1.948529845057
H      4.151499110595    -1.567034969281    -0.248532734187
O      1.661800446488    -1.056911339120     0.092183672657
H      0.769058184129    -1.637243532521     1.226536624819

