# STO-3G

title

0 1
C     -1.031481113258     2.254320501027    -1.097788421219
C     -0.636106422158     3.552926984855    -0.706977108926
C     -1.228671719713     4.681366229638    -1.311069839792
C     -2.207753646882     4.520918825445    -2.310955941432
C     -2.600105839379     3.224945124954    -2.698477953358
C     -2.019097173536     2.091040253745    -2.091978767856
H     -2.770680069260    -1.475383870229     2.574003291672
H      0.115280589253     3.687564348635     0.068894272394
H     -0.926985337742     5.678392219436    -0.996101903305
H     -2.661971124536     5.392173182053    -2.777137970404
H     -3.359623612681     3.091446930711    -3.466447278192
H     -2.340520219082     1.097443527270    -2.393752672349
C      0.046951993299    -0.154203555100     3.549113057366
H     -0.679146230260     0.654274716163     3.591249863683
H     -0.286925989759    -1.119996406637     3.914575898435
C      1.292702249990     0.006876763957     3.049888909334
H      1.978418870497    -0.826847483444     3.018640290419
C      1.807178434010     1.255743564693     2.471243232720
O      0.998406342471     2.148005726062     2.089489759672
O      3.183920618786     1.361056434797     2.207408305348
C      3.627872976419     2.615020070063     1.671719445459
H      4.724007030940     2.570565440862     1.495095997631
H      3.131259515084     2.830957342459     0.700468687145
H      3.421176031066     3.444105191016     2.385340419907
Pd    -0.134659736946     0.693495073407    -0.271841082877
C     -0.988665137557    -2.436938635773     1.428792267994
O      0.319378243096    -2.638965322128     1.350605460572
O     -1.659444836531    -2.781021823995     2.442759109271
C     -1.789890632037    -1.687727086029     0.306569793958
H     -2.817349317959    -2.068477284898     0.396376033633
C     -1.319882535475    -1.930172257520    -1.107978033306
H     -2.010778220751    -1.426582209441    -1.815245595732
H     -0.301066542681    -1.537804552380    -1.269766109994
H     -1.323283311669    -3.019088757795    -1.322470926213
N     -1.792225982661    -0.223219907429     0.552147765705
C     -2.485407886366     0.220331604859     1.558754175066
O     -3.106747915444    -0.524761306924     2.484521771907
C     -2.651894925906     1.667928242355     1.690923462079
H     -3.157723494772     2.038090796597     0.782928115663
H     -3.269681345111     1.878972282718     2.581506565833
H     -1.657331470552     2.132762948149     1.799158496493
N      1.740345192934     0.976654916054    -1.055521977968
C      2.403125428656     1.848254191028    -1.869244451799
C      3.717961706274     1.590782537860    -2.209456165935
C      4.360047246517     0.457628063655    -1.744658378432
C      3.664279467945    -0.411876754775    -0.941782414357
C      2.326712860154    -0.113797888563    -0.610838478107
H      1.903874981249     2.738688552945    -2.233714516421
H      4.243397779539     2.282341509977    -2.847539217768
H      5.394361045211     0.257674663332    -2.011680327867
H      4.102424121833    -1.303612929044    -0.542105613013
O      1.654640145401    -0.926904047151     0.147807709699
H      0.905048213919    -2.013037401068     0.771525308299

