# STO-3G

title

0 1
C     -0.852132511904     2.124591623632    -1.221360826698
C     -0.103918014225     3.304779616155    -1.015543909430
C     -0.622543130077     4.550225304010    -1.426381970602
C     -1.882908014494     4.625400112540    -2.050132137268
C     -2.628621728169     3.448180389497    -2.252174189310
C     -2.120899185290     2.199840595757    -1.834596011356
H     -1.245463861325    -1.643174096758     2.598647712781
H      0.869654838675     3.267665629224    -0.532494740473
H     -0.040047186174     5.454381702348    -1.259730606803
H     -2.279046099174     5.585893175372    -2.371601901577
H     -3.605678945737     3.495829316936    -2.729205606494
H     -2.716917036452     1.303606851397    -1.982611014705
C      1.215817227160    -0.061037946247     3.049996875281
H      0.481751818544     0.257384874399     3.785343889341
H      1.321967384975    -1.134526642372     2.916176094618
C      1.941149167660     0.797140236190     2.298419043233
H      2.621030757115     0.408729111648     1.551984438200
C      1.852100663579     2.263084246547     2.364794409957
O      2.500992976900     2.943675817949     1.526333511772
O      0.894880088340     2.864553576796     3.202852108728
C      0.767056053596     4.288968435187     3.091587176028
H     -0.006379680572     4.645647059718     3.805700060760
H      1.728183008679     4.793697570228     3.340304208109
H      0.449762918654     4.578787533278     2.063942462348
Pd    -0.104370813884     0.385194425582    -0.634116859498
C     -1.246419103039    -3.000587875352     0.726065997321
O     -0.150690030440    -2.576609475914     1.466743770424
O     -1.667639908263    -4.156235815509     0.765977200953
C     -2.004622740202    -1.865629343331    -0.040280607231
H     -3.070237187697    -2.062861934670     0.147233725192
C     -1.770454947623    -1.953663081070    -1.529952261762
H     -2.353876783499    -1.168057751592    -2.052211711758
H     -0.693439054794    -1.827882264619    -1.757512986725
H     -2.099983599649    -2.945499685611    -1.905774092818
N     -1.722576601964    -0.463994933558     0.360126320287
C     -1.801772178892    -0.065487875736     1.596816689270
O     -1.837895306391    -0.844889218389     2.699306716724
C     -1.877716927046     1.376000345154     1.840453721096
H     -2.733224461622     1.776433243118     1.269532825192
H     -2.023000678460     1.550650652274     2.921700316267
H     -0.938272183602     1.845381248007     1.514907581901
N      1.860070237739     0.480772089952    -1.282119253027
C      2.749583970235     1.277232895283    -1.944780151812
C      4.061054751871     0.861889976203    -2.082401596311
C      4.480999606740    -0.345993506671    -1.557676214128
C      3.566701998668    -1.131283125455    -0.899984295395
C      2.238421536439    -0.675544395977    -0.783443623982
H      2.428198897272     2.226745936417    -2.356649938807
H      4.762734361915     1.495135752488    -2.600394318843
H      5.513449208900    -0.668105168475    -1.665216108467
H      3.822700162862    -2.080863112538    -0.475161897183
O      1.358189569750    -1.408612671925    -0.162517260252
H      0.558551526331    -2.070758655439     0.914432823655

