# STO-3G

title

0 1
C     -0.331525055360     2.037793904356    -1.840217826276
C     -0.690103846503     3.335099900948    -1.417495606708
C     -1.084692508908     4.302523054864    -2.367737247735
C     -1.139760436589     3.982070327812    -3.736339616393
C     -0.796000531549     2.682647768772    -4.157144818529
C     -0.389109985204     1.715155708743    -3.216681909167
H      0.117073306794     2.120272680996     1.265298684796
H     -0.678738280113     3.614047550307    -0.367863837935
H     -1.353597222506     5.301326688615    -2.029315017177
H     -1.449994289617     4.730177255693    -4.462163580744
H     -0.844300054754     2.419464140814    -5.212046717632
H     -0.124196687891     0.717229508912    -3.558893593804
C      2.218398726949     0.866882250449     2.230254257222
H      2.755590988941     1.800863370164     2.379000816681
H      2.549851948801     0.232856603435     1.415108240519
C      1.183096312483     0.468794132703     3.008480433027
H      0.681036748322    -0.466293658468     2.794088497907
C      0.637766292988     1.238895528907     4.137494097462
O     -0.410690600982     0.825426767763     4.703836616973
O      1.302581382886     2.397163835799     4.584961151766
C      0.661785340395     3.113008468801     5.649343989457
H      1.271306550211     4.003799119471     5.912213325351
H     -0.348021464158     3.462210543724     5.335365330407
H      0.568590281925     2.473507603535     6.556226179773
Pd     0.309296804257     0.578408601782    -0.637685270404
C     -1.759284126864    -1.902154630582     1.243359772381
O     -0.433901571574    -2.122743774115     1.425635284823
O     -2.619743490246    -2.538351863412     1.868848486572
C     -2.208725028901    -0.756219818751     0.263007593250
H     -3.279130537964    -0.616976942591     0.460187442200
C     -2.038886475300    -1.134774809886    -1.189469710297
H     -2.353395107375    -0.287070939565    -1.834450990321
H     -0.982883796495    -1.389530510522    -1.407446892980
H     -2.673339171425    -2.014828968663    -1.425610831088
N     -1.419267452518     0.469875014189     0.488824916346
C     -1.650515796121     1.349766013511     1.406242463173
O     -0.763437260179     2.318972513982     1.688717976393
C     -2.868810940547     1.355460629641     2.230109178334
H     -3.742903246059     1.473886752832     1.569153481305
H     -2.906797693253     0.412572104273     2.804203690956
H     -2.818870226938     2.202086443936     2.940119099920
N      2.097398544596     0.186234931156    -1.555732947808
C      2.942946218067     0.684604032813    -2.503553366033
C      4.092986017872    -0.014475298783    -2.818722728578
C      4.397343331409    -1.203434345203    -2.181286672753
C      3.533261038733    -1.679650727801    -1.226013217869
C      2.368665498216    -0.942653505240    -0.931326457858
H      2.709181984141     1.616947506813    -3.004950362774
H      4.760297634789     0.378572860494    -3.568429555071
H      5.304743339271    -1.748229916640    -2.428565003653
H      3.712760603390    -2.588072370008    -0.686855216663
O      1.554954078760    -1.370097337127    -0.012399973451
H      0.279365063432    -1.771838237688     0.798761486456

