# STO-3G

title

0 1
C     -1.000718252833     2.165152991448    -1.120140661322
C     -0.725140441692     3.383087640212    -0.464378136939
C     -1.123784772317     4.602317085455    -1.052153641377
C     -1.786617554388     4.610122551300    -2.294349213808
C     -2.056590673702     3.390975201795    -2.946276228083
C     -1.666452502134     2.167090027100    -2.363252088573
H     -1.474475937274    -1.561807769348     2.707939551551
H     -0.223332822694     3.394022693201     0.500037453393
H     -0.920018535723     5.537516062909    -0.534170546808
H     -2.093363504483     5.550978038786    -2.745385685888
H     -2.573190755237     3.386745501108    -3.904122088560
H     -1.885660029236     1.234125000359    -2.877240645928
C      0.939086548783    -0.086315873596     3.252487611636
H      0.102501899877     0.425427237928     3.719924153231
H      0.934470370729    -1.170452947010     3.327340143249
C      1.923492732920     0.552109214884     2.582006762325
H      2.710175569253    -0.024003187979     2.112668136819
C      2.004405041590     2.004690587678     2.368069469789
O      1.024926075947     2.739768297300     2.670659273268
O      3.110916417661     2.520104180692     1.670677156484
C      3.100239219768     3.933504698445     1.426874750401
H      4.028633124867     4.219659310002     0.887237259153
H      2.229733852962     4.220404366350     0.795179176363
H      3.066957423545     4.500346415283     2.385074433110
Pd    -0.390732700407     0.444798089821    -0.352651014850
C     -1.518327917979    -2.953333809311     0.860225126078
O     -0.468487018556    -2.489208754743     1.650224321075
O     -1.879456714435    -4.128971083514     0.860513673102
C     -2.299881723943    -1.840133549426     0.084595203108
H     -3.362154738247    -2.082393314392     0.236367680824
C     -2.019973069340    -1.903699470944    -1.398562837905
H     -2.619156090290    -1.133619024083    -1.927957759762
H     -0.942483700057    -1.732127466969    -1.592105186058
H     -2.299638115412    -2.903170416396    -1.794014452492
N     -2.099669898766    -0.429729316303     0.493335289461
C     -2.173183693778    -0.023938778004     1.732240607239
O     -2.090418693836    -0.778843033046     2.846675457144
C     -2.409036954435     1.400959150401     1.973869514520
H     -2.686076784107     1.902204445447     1.030621659856
H     -3.247204072153     1.481008636861     2.686958444921
H     -1.497957290209     1.843247216567     2.411609022138
N      1.580615338719     0.592139466654    -0.875442798727
C      2.444589811780     1.473068765135    -1.458469884224
C      3.768916339690     1.114512550142    -1.622544609647
C      4.225404715034    -0.119763109160    -1.199615630221
C      3.334281767520    -0.989374908457    -0.620269478434
C      1.989557348148    -0.591895032159    -0.473018868666
H      2.092143442991     2.445179802992    -1.783791524581
H      4.452189309769     1.812138290397    -2.077733697741
H      5.268433945539    -0.397649254724    -1.326117967952
H      3.619888832056    -1.963829786036    -0.278910858180
O      1.139362634541    -1.409361902794     0.072510997209
H      0.281106497925    -2.013719665410     1.115805853402

