# STO-3G

title

0 1
C     -0.828439646456     2.115464993678    -1.222908092430
C     -0.024741785651     3.257370786080    -1.009961571606
C     -0.453571376377     4.518452231077    -1.472939223157
C     -1.678356914346     4.646025983785    -2.156477474435
C     -2.479199579595     3.506943401834    -2.365627996326
C     -2.061931661941     2.243699105711    -1.895788950182
H     -1.620989356214    -1.560099997929     2.649643211321
H      0.919539847458     3.176168622540    -0.477923949112
H      0.167162312914     5.394959804684    -1.298210930299
H     -2.006736678712     5.618449462937    -2.516303606395
H     -3.430365446369     3.596457872860    -2.886978374606
H     -2.701502506844     1.378668223949    -2.047420088378
C      0.912632709605    -0.084092793770     3.185217045073
H      0.195816511210     0.193789893106     3.953848843608
H      0.992146748423    -1.145049868770     2.966237792473
C      1.648908061848     0.816051228702     2.494568090526
H      2.311059037430     0.471836518570     1.712433583304
C      1.606829215111     2.274532488824     2.685936963135
O      0.778090811612     2.780963422258     3.489049368684
O      2.359855813595     3.082595826853     1.815096235445
C      2.215256775624     4.499034994291     1.994091063360
H      2.861666329247     5.031815406980     1.263945545595
H      1.160771072021     4.814791125572     1.821600799080
H      2.527228702371     4.802164778011     3.019624274796
Pd    -0.200502636066     0.359229606486    -0.552232987144
C     -1.596075254117    -2.939782034477     0.792741239921
O     -0.513166864483    -2.571542947222     1.579235807027
O     -2.087652276264    -4.067570308545     0.827124619161
C     -2.244718405177    -1.775484163211    -0.027766653171
H     -3.328699715387    -1.909811132969     0.099823740338
C     -1.929625906665    -1.898798696523    -1.500016602032
H     -2.435680743391    -1.089575935347    -2.064974959789
H     -0.835574850405    -1.838122747442    -1.664647642405
H     -2.293493680507    -2.875777508356    -1.883097513054
N     -1.905028140199    -0.386697951684     0.372131542981
C     -2.025208094224     0.033571805725     1.598427427207
O     -2.169147565920    -0.727641693156     2.704771969482
C     -2.023256175276     1.480317639681     1.821415330025
H     -2.828321813589     1.924463775167     1.211175198356
H     -2.201452899498     1.679098864846     2.894067720306
H     -1.044212809754     1.889575558558     1.533347632358
N      1.793783605684     0.345720084853    -1.109894147642
C      2.740760090339     1.067811029726    -1.777768246670
C      4.035761229693     0.589367839496    -1.846573802318
C      4.380247888146    -0.611646045011    -1.254801531684
C      3.407556616396    -1.324975661088    -0.599126955158
C      2.097891943004    -0.807276679269    -0.553482937042
H      2.478455394084     2.011156467931    -2.242376869774
H      4.783542653527     1.163551591996    -2.369083004204
H      5.399386211751    -0.985327824348    -1.310812855788
H      3.603308764320    -2.266759381448    -0.126968745655
O      1.162836298462    -1.475532387806     0.058003044658
H      0.245933314440    -2.101933502605     1.065941471891

