# STO-3G

title

0 1
C      2.715059290670     1.476828603523     1.405300437330
C      2.853015827110     2.474150961284     0.412032509330
C      3.597140414393     3.642039618003     0.674447172857
C      4.200423485599     3.835781913747     1.932813333818
C      4.058483428422     2.852401278423     2.929423409857
C      3.326297506160     1.674996622099     2.667613311901
H      0.777537544592     1.592970332758     2.354317933610
H      2.387700491943     2.348000721717    -0.562538775479
H      3.700397189300     4.397888365671    -0.101550509244
H      4.768717410670     4.740977026358     2.133117248695
H      4.513407648629     2.996623564529     3.907363974697
H      3.239260687601     0.921263468895     3.447718684146
C      0.362723959123    -1.294343839850     3.686574198715
H      0.761337543599    -2.301020679163     3.584491027412
H      1.079672030077    -0.524109373158     3.958329766806
C     -0.935138265940    -0.994443381086     3.451750051800
H     -1.265840938224     0.033407890396     3.503351375615
C     -1.961793466654    -1.966603272853     3.047752050261
O     -1.744083158440    -3.202307931574     3.171900564564
O     -3.205922117805    -1.475434180995     2.611209229560
C     -4.071592938168    -2.393311685914     1.920151602740
H     -4.367181232126    -1.951300487731     0.943438073888
H     -3.604683617589    -3.381246348111     1.700541537343
H     -4.991112981632    -2.560599958512     2.520243460653
Pd     1.797432651067    -0.256483652708     1.016193271807
C     -1.452530448043    -1.266942174524    -0.622151012175
O     -1.023728930917    -2.251559430136     0.193668767347
O     -2.603962675806    -1.259567794575    -1.089550349070
C     -0.498383673464    -0.051651962166    -0.923141296109
H     -1.116005813239     0.645987897782    -1.501601238856
C      0.694797866548    -0.423551886477    -1.772954461804
H      1.314956659328     0.477030370479    -1.961340394339
H      1.314923242632    -1.191752920601    -1.273905424389
H      0.350590325505    -0.827407009979    -2.748172543767
N      0.018833429123     0.566787321241     0.320312544038
C     -0.644340336275     1.404275373991     1.053307397148
O     -0.160656728584     1.890435043470     2.203108401446
C     -2.006161799212     1.860393123614     0.723994227534
H     -1.977621953564     2.411340863738    -0.229903929856
H     -2.672267884047     0.980890730359     0.674014764375
H     -2.364186077140     2.536537935022     1.523000026621
N      3.281854612990    -1.557249119385     1.602640765677
C      4.551090557203    -1.613134703845     2.100760024777
C      5.126526561880    -2.844676078108     2.353846864191
C      4.434642982485    -4.015890495411     2.102805737219
C      3.165051299259    -3.933473261490     1.586702663319
C      2.613148396814    -2.661208569908     1.339204544492
H      5.097897483410    -0.699280109002     2.302034044480
H      6.126591748328    -2.887940710595     2.753411030085
H      4.888341299815    -4.982396377333     2.306030030663
H      2.572769957974    -4.798790647394     1.365960992211
O      1.420565393353    -2.557466446225     0.836171578107
H     -0.052634679508    -2.349156072893     0.466158014659

