# STO-3G

title

0 1
C     -0.176311927366     1.794739171736    -1.550102590776
C     -0.822143734496     3.042391592748    -1.397449491185
C     -1.219953969909     3.780401600892    -2.533052871274
C     -0.992382975682     3.278180282594    -3.827024056481
C     -0.360737671027     2.029469090996    -3.980508380884
C      0.051997665202     1.292688705769    -2.851968934840
H     -0.171553190862     2.470400967164     1.475512014414
H     -1.033758626777     3.458512251918    -0.416255394719
H     -1.712447158431     4.741383972731    -2.397986501646
H     -1.305272653421     3.846480701065    -4.699739012702
H     -0.185296837898     1.623799117361    -4.975000466881
H      0.541749146554     0.334145802440    -2.997180042935
C      1.910091064979    -0.168347282738     2.068919906951
H      2.701041663721     0.572192407706     2.003180274386
H      2.027075316993    -1.063212418243     1.465121334999
C      0.860486353960    -0.069682361049     2.930193882924
H      0.133137448968    -0.866706426413     2.963532048150
C      0.650147548920     1.031204068355     3.883582881938
O     -0.363853036459     1.000669925128     4.631691743977
O      1.559422333887     2.105252866483     3.920114426799
C      1.178152460432     3.212781008263     4.747372615924
H      1.960184890856     3.999772123582     4.693631161575
H      0.217254443188     3.652800575417     4.393550333519
H      1.072575130653     2.896585446252     5.809899452770
Pd     0.417364648526     0.749307454317     0.068620872458
C     -1.594754448509    -1.821408138438     1.204629586767
O     -0.331361398847    -2.168819410219     0.917469697522
O     -2.257691640049    -2.406221064704     2.082349589965
C     -2.249043980414    -0.574111251262     0.498700339440
H     -3.282393068081    -0.562938073083     0.865100390895
C     -2.276041107571    -0.683799013221    -1.007564179189
H     -2.720398864387     0.236894847207    -1.441437259884
H     -1.253620846439    -0.812095874399    -1.410152385647
H     -2.890589530189    -1.556119727498    -1.312712395082
N     -1.504753183854     0.650067710072     0.848693265306
C     -1.875788119727     1.583410654795     1.655147621390
O     -1.044481975064     2.608092025056     1.946363783068
C     -3.173202983909     1.602209170659     2.342436232387
H     -3.973860640828     1.634046150817     1.585358276074
H     -3.237055399045     0.700091281583     2.976714588076
H     -3.226166048052     2.500503187489     2.985259840725
N      2.188504052485     0.389451597500    -0.863596987714
C      3.128142283736     1.279908035405    -1.299606596512
C      4.202241676575     0.831284166055    -2.038478497481
C      4.337509804343    -0.505812345863    -2.346063455224
C      3.376786944519    -1.381066148720    -1.909303954250
C      2.279133958416    -0.902361979702    -1.158964958278
H      3.029748514108     2.332092274189    -1.058363854818
H      4.942176115505     1.537966633137    -2.377368875121
H      5.185617537314    -0.858052217178    -2.927349077909
H      3.422290666034    -2.430129726319    -2.123884332377
O      1.400867149657    -1.773075225909    -0.801664416013
H      0.304264429316    -1.879075917549     0.120243611225

