# STO-3G

title

0 1
C     -1.696243031775    -1.580831759548     1.230815972975
C     -1.449211474130    -2.893725333548     0.746904476244
C     -2.308108145925    -3.461634947152    -0.203839598774
C     -3.417654238746    -2.729814478806    -0.701182212122
C     -3.664480042788    -1.430117124808    -0.243174082958
C     -2.806611642309    -0.840654988723     0.730664006199
H     -1.069027237365    -1.165596151566     2.012493402643
H     -0.582866806566    -3.434992232543     1.114870641315
H     -2.119123509290    -4.467983399250    -0.568931796929
H     -4.074437984390    -3.180104625991    -1.440840680360
H     -4.514633241545    -0.864344339622    -0.614240989001
H     -3.060918643690     0.124476736109     1.160981519884
C      0.361923979687     1.082116180563     2.371544461053
H     -0.376377397897     1.848429093808     2.150069642226
H      1.074447416326     0.830999408410     1.588561694640
C      0.416233286448     0.418215278456     3.549530982143
H      1.158690934225    -0.359088260413     3.684819343755
C     -0.480067739073     0.637673314088     4.696152880479
O     -1.415705599573     1.478253503465     4.617083833120
O     -0.293092574154    -0.139867875744     5.853044503964
C     -1.216484756698     0.100700367361     6.924418256318
H     -0.971811915850    -0.565851918740     7.779112258091
H     -1.149727955062     1.155794492086     7.274945057762
H     -2.260669274563    -0.115499509610     6.602476001701
Pd    -0.851377039568     0.007527867237    -0.424707657196
C     -0.794748230503     2.863435551895    -0.683820817475
O     -1.574503221457     1.865054142210    -0.172666667116
O     -1.069389894488     4.062305585992    -0.525529488881
C      0.479601721479     2.401784637660    -1.490144111385
H      1.342353568718     2.946145665967    -1.081321493412
C      0.338579254555     2.717617816012    -2.963402917095
H      1.261078455235     2.428308251880    -3.504617009170
H     -0.519178022396     2.152097837051    -3.383270047607
H      0.164805780881     3.805121614953    -3.105214942071
N      0.604112770810     0.966706272062    -1.338560689641
C      1.505043742017     0.025567242864    -1.424475917684
O      1.113616488775    -1.178480473472    -1.077018274702
C      2.890809409410     0.296117903411    -1.820254672793
H      2.887608514811     0.709112442801    -2.841673935308
H      3.312939865221     1.012818099773    -1.095737326308
H      3.458992857881    -0.651162961492    -1.786238642136
N      3.140442515006    -0.455296304654     1.520603421065
C      4.046765727845     0.192722835851     2.316530609853
C      4.484766757729    -0.396380118593     3.488766145244
C      4.020556744711    -1.640234040175     3.863920065550
C      3.115720398688    -2.267449539914     3.047358938303
C      2.702698331353    -1.619017509905     1.862854387791
H      4.413203302958     1.170982126038     2.028377112850
H      5.193552425359     0.124469209224     4.111484531891
H      4.360034171689    -2.108404389904     4.784117089810
H      2.708715174966    -3.232491629811     3.274636630809
O      1.799406918198    -2.313813360523     1.152518685403
H      1.575320404996    -1.881760110489     0.266109689610

