# STO-3G

title

0 1
C      2.798696444895    -1.184413824332    -0.598619909806
C      3.264908741872    -0.300379700164    -1.605552330561
C      4.405388660536     0.482891518248    -1.376083041396
C      5.084878836329     0.419813427229    -0.133628146254
C      4.624586591906    -0.436291717308     0.874811582142
C      3.479319424970    -1.255015562538     0.651287812858
H      1.947979513135    -1.825186040323    -0.812455778437
H      2.713685786584    -0.235756866727    -2.537903869508
H      4.764026488891     1.152993992120    -2.153406084434
H      5.961446359267     1.039137332449     0.036924408032
H      5.137416144473    -0.493502518966     1.830733146477
H      3.203148144944    -1.999291966894     1.393346888863
C     -0.671961268362    -2.469733791633     0.403410143308
H     -0.546332438912    -3.549524573407     0.420476204471
H      0.202889037455    -1.879370853374     0.663138281377
C     -1.829726105570    -1.851345257674     0.079296625044
H     -1.868692678985    -0.772740386566     0.035359781676
C     -3.077681375928    -2.540035921693    -0.290199450152
O     -3.112267197685    -3.799562119024    -0.343826590471
O     -4.235861118639    -1.770096231348    -0.506183117088
C     -5.409241574736    -2.501109470860    -0.888722413163
H     -6.254288628214    -1.794352250741    -1.032495001333
H     -5.240301614536    -3.043790973246    -1.846674911505
H     -5.696875005871    -3.230108282289    -0.097107553483
Pd     1.539008022023     0.104759400417     1.119803268261
C      0.681200737797     0.023474341880     3.838123841393
O      1.607688297353    -0.550144173319     3.013018822032
O      0.710163659057    -0.122741951588     5.068480122517
C     -0.459576039108     0.856953792326     3.129370205807
H     -0.548521933392     1.815741327870     3.658137039946
C     -1.779432671211     0.116332875715     3.198311968838
H     -2.574494785388     0.681906367025     2.674829816440
H     -1.673660388568    -0.879652984901     2.722931688334
H     -2.078755108839    -0.023571983409     4.258291688173
N     -0.084972223512     1.029876186133     1.738627305291
C     -0.409985772944     1.663795554983     0.642948735301
O      0.374069069804     1.447888326522    -0.389358004901
C     -1.570513376438     2.552835897023     0.524719471432
H     -2.258550837004     2.104234627545    -0.214720433736
H     -2.059311291204     2.662024348524     1.505213349355
H     -1.211753061842     3.532866240333     0.164867788377
N     -2.079834522485     0.121435316428    -2.411960918928
C     -3.298165033390    -0.156590957401    -2.971893043029
C     -3.388412576529    -1.046706117461    -4.027804865879
C     -2.255166566252    -1.654749456248    -4.528493660389
C     -1.047380725213    -1.346842334237    -3.957894465481
C     -1.017507018039    -0.429603614164    -2.885463369044
H     -4.191761685516     0.310981373695    -2.575411383208
H     -4.352158805309    -1.265973176065    -4.455520242058
H     -2.318338090821    -2.358499197864    -5.354083305857
H     -0.126268531264    -1.779934512546    -4.291000929605
O      0.211570628119    -0.213733680746    -2.384091922577
H      0.210752605960     0.473689397795    -1.648368560877

