# STO-3G

title

0 1
C      1.513152988987     1.573155481179     1.186621961550
C      0.453108001513     2.279074945294     1.815535205146
C      0.018714293268     1.906222270801     3.094013986971
C      0.627810571193     0.818670609181     3.770953045212
C      1.674202403897     0.112787268630     3.165609650004
C      2.129311065912     0.483525917026     1.867114431968
H      1.906364495240     1.918136407550     0.235367995739
H     -0.013919682325     3.113192285829     1.299372814802
H     -0.792843826713     2.450848130533     3.569654013338
H      0.281141219036     0.535469082107     4.761187584448
H      2.153915776659    -0.715497154066     3.679450662486
H      3.009364685201     0.003950471317     1.447035306261
C      0.165821173047     1.170967960588    -2.825125242364
H      0.486197213386     1.274315235525    -3.860033803502
H      0.498025626436     0.273463783133    -2.313452683929
C     -0.606928699945     2.085163668726    -2.185538923060
H     -0.910305860000     1.896697324520    -1.165042082121
C     -1.098241706613     3.339232551595    -2.781381527404
O     -0.786795179397     3.636285470268    -3.966426668608
O     -1.868406724604     4.207477145528    -1.988329095425
C     -2.286733800861     5.426692596619    -2.618141449074
H     -2.885128403807     6.026298875243    -1.898837896844
H     -1.406170867311     6.033967637952    -2.928752873860
H     -2.922193164815     5.214910363761    -3.507893829661
Pd     0.613455806038    -0.557495765253     0.315852969218
C      1.589083736773    -3.038014331661    -0.735156934514
O      2.006100344422    -1.975159164010     0.006983412399
O      2.338394775601    -3.999738367681    -0.975399763171
C      0.119173999507    -2.962155367594    -1.300127290222
H     -0.418466936299    -3.850052413418    -0.935051059236
C      0.124278194886    -2.965973792967    -2.814324385968
H     -0.912772746102    -2.945888037805    -3.201705807413
H      0.671624555785    -2.075658082496    -3.187271915157
H      0.626269359880    -3.882173633003    -3.190341393587
N     -0.471054288977    -1.723015374427    -0.836008766069
C     -1.644886592774    -1.147998855744    -0.688853845807
O     -1.658686995275    -0.020864151881    -0.029931044320
C     -2.877395859768    -1.727441915373    -1.239814397555
H     -2.788983626061    -1.740286111273    -2.338018186495
H     -2.989544611841    -2.745907082404    -0.833472158652
H     -3.729553856050    -1.092797482770    -0.935335808190
N      3.292881939453    -0.025626772305    -2.100976725201
C      4.152097575850    -1.079146842223    -1.926512071523
C      5.360885202794    -0.884198361957    -1.279883094224
C      5.705416424208     0.361891761631    -0.798754527537
C      4.822680314908     1.394990075148    -0.984275816300
C      3.610901724892     1.133471393204    -1.656571459331
H      3.888379170091    -2.059834071811    -2.304137194463
H      6.024002874705    -1.722235575163    -1.141888248552
H      6.648945949329     0.518916324332    -0.283195048576
H      5.017363540090     2.388577536536    -0.634172767207
O      2.795506250313     2.215993590335    -1.754203515256
H      1.943369320512     1.986277132098    -2.198329266440

