# STO-3G

title

0 1
C      1.209031746406     1.571854765776     1.557078836502
C      0.130468151235     2.244422135937     2.189043413050
C     -0.313617253172     1.821514949271     3.448954627765
C      0.302413029833     0.718978787747     4.094031169309
C      1.366919060673     0.048028470128     3.478396452504
C      1.839463407415     0.469103994047     2.202747888125
H      1.580019933914     1.931825969395     0.601710429166
H     -0.351980810482     3.078251588825     1.687225220958
H     -1.141628188174     2.335058900516     3.930917463555
H     -0.054603043377     0.396090406481     5.068577011156
H      1.850088236246    -0.789943386403     3.973387228708
H      2.734256800227     0.041326246174     1.757815312304
C      1.225233859213     1.541954972882    -2.095312157089
H      1.929049932117     1.936769669750    -2.824475413866
H      1.625971259683     0.784518978812    -1.425761686000
C     -0.057153430855     1.960111465162    -1.990164615920
H     -0.698786074819     1.547296303758    -1.222998748345
C     -0.685560859401     2.968164067048    -2.860579902348
O     -0.028955830376     3.489974419264    -3.802108122131
O     -2.038451860914     3.288515436690    -2.650233882060
C     -2.593511937489     4.275365474517    -3.531291877128
H     -3.659110956960     4.447547825992    -3.267081075406
H     -2.050492131478     5.242900246978    -3.433700871898
H     -2.548092286213     3.931690876091    -4.589684726075
Pd     0.344484833321    -0.502170999908     0.561278899002
C      1.449039415105    -2.718167119580    -0.881654040748
O      1.804344144844    -1.789054469356     0.050884804424
O      2.229624499137    -3.619263250764    -1.233061705179
C      0.007313735027    -2.564168766354    -1.501406877568
H     -0.488300976806    -3.542696971375    -1.427312480988
C      0.086483155954    -2.147412380268    -2.956220116870
H     -0.928931820979    -2.077940122428    -3.393380881355
H      0.577503034213    -1.155580537280    -3.034074081712
H      0.675019571372    -2.890938014954    -3.533742958068
N     -0.681214594098    -1.529678236932    -0.757904290844
C     -1.854105753093    -0.955225864000    -0.621016824192
O     -1.902509783478     0.056198184722     0.208832134013
C     -3.057145099215    -1.399142069928    -1.338744216907
H     -3.379284619692    -0.571151313803    -1.993102544053
H     -2.828001376220    -2.301925966348    -1.926511731061
H     -3.835899882879    -1.618526807681    -0.587589748986
N      4.162919988220     0.272867986602    -0.202215229144
C      4.522650222170    -0.993257258901    -0.584516808825
C      5.006045555869    -1.212436557041    -1.863736916747
C      5.136617918427    -0.166084527966    -2.754030476580
C      4.772345583916     1.089538693024    -2.337279223837
C      4.283966663756     1.245875769528    -1.024580681782
H      4.430627602853    -1.817448684424     0.113444506758
H      5.267384999846    -2.215699241779    -2.159275954985
H      5.513923771638    -0.333749525900    -3.759132051088
H      4.843659441904     1.951118766680    -2.970342985309
O      3.913554175041     2.517084321667    -0.718381608381
H      3.554262455945     2.545525488695     0.192675028895

