# STO-3G

title

0 1
C      3.077361632579    -0.313627856613     0.372048872995
C      3.960471919315     0.521976790064    -0.365083923142
C      4.532413513805     0.062331608015    -1.556881270560
C      4.245410123233    -1.243492304800    -2.036872871116
C      3.390679823540    -2.085840080019    -1.316780740701
C      2.791526862182    -1.624649188541    -0.107949947297
H      2.691819802333    -0.021973662668     1.343958335651
H      4.188874097003     1.517135394672     0.005414853577
H      5.196641401388     0.708354026132    -2.124937820329
H      4.693909154624    -1.586852806392    -2.965348717819
H      3.183284460464    -3.093059406152    -1.667970148560
H      2.221435275139    -2.298514009601     0.524732139100
C      0.767155331054     2.349437053667     0.711155777891
H      0.985876124815     2.690439151139    -0.298125331223
H      1.558573447692     1.824909737891     1.235395327561
C     -0.422830004026     2.538214916827     1.327484859317
H     -0.568280001799     2.148327210984     2.325674765435
C     -1.594047876707     3.210295491241     0.744878178369
O     -1.587932099770     3.551757128991    -0.469858373425
O     -2.752184145207     3.340085620163     1.530434437733
C     -3.885310330330     3.940924903022     0.888311414011
H     -4.730326480997     3.993167801607     1.608501006113
H     -3.648353852746     4.976638039307     0.554500856928
H     -4.212834884888     3.333782865688     0.014364818054
Pd     0.951292005215    -0.306118613120    -0.917118760747
C     -1.772777823126    -0.645196918609     0.025771510216
O     -0.507731838493    -1.083982803123     0.298249391299
O     -2.718886281702    -0.818876727754     0.808171749575
C     -1.940327221838     0.086178731292    -1.355504407635
H     -2.551624553693     0.981517550294    -1.177228500912
C     -2.638927112376    -0.802558037251    -2.362078328251
H     -2.800053779641    -0.247292669263    -3.307517785621
H     -2.009890100075    -1.692882051616    -2.570203723785
H     -3.622829323907    -1.130076854488    -1.965537488344
N     -0.620801881555     0.397339805960    -1.855592940871
C     -0.020505392133     1.237942191224    -2.667296022722
O      1.289175710606     1.208577144328    -2.649180574395
C     -0.760063141810     2.148227971927    -3.551424588201
H     -1.369318204328     1.541384698515    -4.239453579680
H     -1.393449094721     2.793921595404    -2.920283731163
H     -0.031788406084     2.759481060954    -4.113873982181
N      1.747781007477     0.692465361790     3.610013534870
C      1.595362753434     1.607585535182     4.616374265278
C      0.391085104919     1.698915048241     5.293239197155
C     -0.656114545586     0.857925761465     4.977340126378
C     -0.471643979229    -0.060568650281     3.976046164148
C      0.785208418369    -0.107083552418     3.320416254093
H      2.413103040160     2.273308143041     4.866212872935
H      0.278757164140     2.429409571360     6.077202619249
H     -1.602122494579     0.921286633964     5.508631602242
H     -1.242023741118    -0.751192748945     3.692160970413
O      0.936517177291    -1.050765727607     2.365687659611
H      0.166397249974    -1.170731362243     1.723317107590

