# STO-3G

title

0 1
C      3.071702329642    -0.014922980879     0.070080800770
C      3.987594984424     0.751863312714    -0.704323760108
C      4.544620195845     0.218186496095    -1.870759922154
C      4.208044644902    -1.096606804050    -2.291761189026
C      3.322037036751    -1.872489246294    -1.536640820249
C      2.743790965013    -1.336348727782    -0.350010509775
H      2.683681994635     0.336415397385     1.021075335288
H      4.256526778690     1.752881477261    -0.379898625549
H      5.237904936573     0.810718303352    -2.461823577881
H      4.646934959516    -1.500060772619    -3.200627110010
H      3.077839159411    -2.886566024623    -1.841129646666
H      2.144051889788    -1.964752465563     0.302451559296
C      1.372737416854     2.711507836396     1.100945077866
H      1.435260697284     2.333350557278     2.118582890187
H      2.312089823707     2.815344086630     0.565066833539
C      0.209682957296     2.995886632319     0.470502840563
H      0.222765843591     3.314785606862    -0.562039997401
C     -1.127949177567     2.872490128041     1.073556991366
O     -1.252994722274     2.521585120925     2.276186735279
O     -2.254853093403     3.076029803708     0.254314473265
C     -3.527115145460     2.883483821442     0.891096388156
H     -4.341887623834     3.069452733524     0.159197346716
H     -3.628141855643     1.839258015066     1.268838102911
H     -3.655179276200     3.592295506846     1.740872973661
Pd     0.920182755652     0.081569840949    -1.086339400260
C     -1.745007936368    -0.536651202966    -0.101753283873
O     -0.431535680858    -0.810468768093     0.168875805264
O     -2.663105988764    -0.850469908339     0.670313533026
C     -1.996345245868     0.191681527897    -1.468915433619
H     -2.748625432226     0.972798832008    -1.295841717536
C     -2.519109996319    -0.773548889118    -2.511763254980
H     -2.733145012003    -0.231832508035    -3.454708179469
H     -1.756102650973    -1.554444122102    -2.711431561252
H     -3.453247181419    -1.254818918418    -2.153234275699
N     -0.729577359911     0.718227121441    -1.927478270960
C     -0.252960886066     1.644249370148    -2.727385293180
O      1.046300527870     1.755030365523    -2.771301043931
C     -1.133393091320     2.543780683498    -3.485399431911
H     -1.734634170328     1.933533055604    -4.178335665706
H     -1.776171396921     3.075661474100    -2.762931660145
H     -0.505818203359     3.259756218843    -4.046473201752
N      1.403100236970     0.934673312538     4.112076799912
C      1.033539207084     1.372857058246     5.354670131078
C     -0.181998499803     0.989665785290     5.895008424470
C     -1.034482650948     0.170167772055     5.184249813748
C     -0.636361857762    -0.271054163654     3.948952824281
C      0.619495764495     0.163775339167     3.449432728108
H      1.695645025582     2.024051380169     5.912868783019
H     -0.465762046697     1.349325171729     6.869152039933
H     -1.995864579350    -0.123440838769     5.596293950115
H     -1.260935558899    -0.905062803953     3.352120415586
O      0.994698630715    -0.299929434020     2.233771333593
H      0.269938677782    -0.590117216581     1.604255927484

