# STO-3G

title

0 1
C      3.106070698472    -0.422159753488     0.192823402799
C      3.967855639586     0.460339625138    -0.516810805974
C      4.546779599692     0.057321120081    -1.724550878649
C      4.288919507401    -1.237593300323    -2.249765950923
C      3.457236604478    -2.126127654468    -1.559369335088
C      2.852544029354    -1.723338531874    -0.333259395209
H      2.709519041225    -0.176544573192     1.173689048298
H      4.173700131429     1.446258810615    -0.110096338253
H      5.194523504120     0.738184575746    -2.270319829579
H      4.742652837546    -1.536616807332    -3.190941016983
H      3.272549843334    -3.124257038196    -1.946942501078
H      2.298533942213    -2.439852762026     0.267499126050
C      0.897942541042     2.284546335152     0.736038399704
H      1.140688929854     2.548436124626    -0.291333284695
H      1.651628510833     1.744946631644     1.300277462549
C     -0.279398997816     2.587495854446     1.330563351455
H     -0.448803309978     2.271993664228     2.350793621957
C     -1.402671936203     3.297758503134     0.700779386602
O     -1.366211938136     3.573937866372    -0.529676479252
O     -2.559818461240     3.532250131070     1.463409453388
C     -3.641801778756     4.183251117951     0.783013816037
H     -4.490142620999     4.319171264534     1.488237374501
H     -3.331115129387     5.187668914446     0.415602621083
H     -3.998547998962     3.567780717138    -0.073450550717
Pd     0.977182405992    -0.360729390593    -0.996827677403
C     -1.659274919577    -0.672797797575     0.158720435883
O     -0.372667590957    -1.096802033594     0.352949659247
O     -2.546637005872    -0.847504785892     1.007030190483
C     -1.932872948660     0.044850414288    -1.213425558750
H     -2.514745988435     0.950584019724    -0.993138757150
C     -2.726588161711    -0.844055891814    -2.146626601311
H     -2.963171225033    -0.295161498551    -3.079806074013
H     -2.128536358820    -1.743970543600    -2.399784032177
H     -3.676132573121    -1.155747663827    -1.663070538396
N     -0.657227399683     0.333964515428    -1.827025352407
C     -0.111812807565     1.144447216388    -2.705943428070
O      1.195699287561     1.099046272877    -2.783863846566
C     -0.906203937419     2.027002816895    -3.570247938786
H     -1.559408285716     1.399443262768    -4.196498998469
H     -1.496067243013     2.696226656193    -2.922318183832
H     -0.214929023435     2.616240410755    -4.199021452796
N      1.645600944684     0.869356687376     3.930082790712
C      1.312613914346     1.667943939567     4.990393076298
C      0.029292204418     1.632255077426     5.508574992746
C     -0.917022308322     0.780166323914     4.977706764391
C     -0.552674038739    -0.021643182541     3.926866226648
C      0.777616930374     0.063097691350     3.438431391155
H      2.051337640531     2.340941686777     5.409510999631
H     -0.224983026373     2.272142708533     6.337136858334
H     -1.925035384679     0.744553334821     5.382505582088
H     -1.244685696863    -0.709567208303     3.479499476287
O      1.105641562606    -0.753772247092     2.411282857751
H      0.371481743281    -0.994059060633     1.766511126478

