# STO-3G

title

0 1
C      1.669057018502    -1.209676615995    -0.750683532753
C      2.942387861410    -0.780558949639    -0.323314467064
C      3.907599737187    -0.374425972182    -1.265635644911
C      3.600827943223    -0.397141826704    -2.641649884306
C      2.330823185419    -0.830956184146    -3.071951628898
C      1.367649576607    -1.238742703691    -2.127025848603
H      0.937718720927    -1.533745615769    -0.016515841243
H      3.178580791429    -0.765752841652     0.739579490367
H      4.889970289261    -0.047454726631    -0.931463963690
H      4.345466983139    -0.084743839634    -3.370479877646
H      2.094472837755    -0.852212463157    -4.133349782356
H      0.387943030332    -1.573474802919    -2.461543601788
C     -2.271812599727    -0.553336672514     1.970742851332
H     -3.039730047926     0.196517468477     2.136239104887
H     -1.839399676251    -1.033094580689     2.843900384226
C     -1.975843764505    -1.045967067268     0.701049875944
H     -1.264688090387    -1.857738083882     0.633820562510
C     -2.693499610063    -0.664061706615    -0.528330495422
O     -3.833409778383    -0.132093397023    -0.449709519186
O     -2.158920077884    -1.064947037707    -1.765465776462
C     -2.850995303585    -0.579188630747    -2.924169454267
H     -2.334812104107    -0.936530340936    -3.840496206711
H     -3.899606403672    -0.954035884385    -2.945753192966
H     -2.858128494030     0.535451799082    -2.939502588659
Pd    -0.444720093339     0.586823224278     1.318315284397
C     -0.840635682899     2.895304248190    -0.303228558414
O     -1.386764695366     3.741553505790    -1.028540039596
O     -1.498297568796     1.826822406666     0.195639868517
C      0.674648534480     2.994688344206     0.056374270043
H      0.840213977381     4.052218480608     0.300108657048
C      1.529628868101     2.608558463951    -1.133920866386
H      2.606603602653     2.681956244440    -0.884402125498
H      1.308804387186     1.561575727310    -1.424849211311
H      1.312096709966     3.275465874384    -1.994454007602
N      1.004618305049     2.078996283457     1.166532703743
C      1.998292117084     2.149862545564     2.009993890473
O      2.222002335866     1.250334273817     2.948780127547
C      2.992936138420     3.241995949655     2.007706622471
H      3.991141214836     2.779671160988     1.914105666971
H      2.848341961956     3.951686308730     1.183939164156
H      2.917810965555     3.769202913065     2.975341633725
N      0.240578208906    -2.749564041302     1.964224287251
C      0.461124213147    -4.089599636812     2.133274848423
C      1.333064761552    -4.528641043445     3.112552894010
C      1.984753847530    -3.625090019612     3.924758747902
C      1.745824230027    -2.288254654663     3.733968110381
C      0.843977031537    -1.894745262509     2.715181860176
H     -0.049195101198    -4.803281466268     1.497080282666
H      1.500123405129    -5.585827059817     3.237240466690
H      2.669408018945    -3.964599621138     4.697453132213
H      2.216820476259    -1.539366289118     4.337392398979
O      0.679076784549    -0.572395809397     2.603671281279
H      1.585111001330     0.386219978138     2.917408256424

