# STO-3G

title

0 1
C      2.755455106751    -1.735990579237     0.057833541149
C      3.905103759862    -1.516507522304    -0.726632659477
C      5.058401002008    -2.299811762674    -0.520807114084
C      5.060676438222    -3.303799732681     0.468014969074
C      3.907810937120    -3.527135338794     1.247624129146
C      2.754613461259    -2.744288432651     1.042467965408
H      1.873363380108    -1.118585528774    -0.091967826411
H      3.903828237363    -0.737989305891    -1.486332181406
H      5.945448571662    -2.127895289388    -1.126137825527
H      5.950394393350    -3.909410093887     0.625715115430
H      3.906072916916    -4.306648136946     2.006289541885
H      1.859955951685    -2.918195971207     1.634650145665
C      0.867980009683     2.806318381632     0.860262904745
H      0.374004549056     2.888677893650     1.823361268183
H      0.467033690033     3.380263742812     0.030734463754
C      2.041889409465     2.074995821058     0.679687511549
H      2.512264176462     2.063810605341    -0.293384185242
C      2.834983120636     1.464391251269     1.763006520476
O      2.458229469103     1.560001321775     2.961494975694
O      4.057928533777     0.861823459887     1.428674734270
C      4.713238371796     0.145297242439     2.483592714959
H      5.644483879972    -0.314981172180     2.089041294897
H      4.982517844425     0.828594572095     3.320242020450
H      4.063383474743    -0.674737462387     2.864813268027
Pd     0.213926057415     0.784952935282     0.137364396295
C     -0.209959564451     0.772673486246    -2.682437853976
O     -0.063135129755     0.985011473424    -3.895901141581
O      0.472618279583     1.444015598392    -1.726149113512
C     -1.242749948411    -0.277587169267    -2.152780519953
H     -1.274100503462    -1.088406161142    -2.891858676077
C     -2.622051206456     0.336529423820    -2.034032832716
H     -3.351704462269    -0.425934242387    -1.694717343979
H     -2.600774332403     1.162659457344    -1.292852149435
H     -2.948741765089     0.735241804585    -3.017706607142
N     -0.844601758578    -0.719370079651    -0.804251957403
C     -0.994726742410    -1.897655602033    -0.267235690092
O     -0.636468371477    -2.182131708524     0.970093590083
C     -1.546334166632    -3.025538419011    -1.038721885857
H     -2.559443091494    -2.759534069266    -1.382368516759
H     -0.869511738615    -3.228319637068    -1.886117191994
H     -1.598320533265    -3.920778666310    -0.390915660725
N     -1.020709605708     1.663348320948     3.086491298409
C     -1.581894864990     2.154723433032     4.234344644052
C     -1.642143962396     1.367148444286     5.370157536370
C     -1.125999104330     0.088407973697     5.360836893498
C     -0.567969092584    -0.379372456926     4.199526731201
C     -0.528319138980     0.474696918217     3.070177161943
H     -1.986726272765     3.159794366580     4.246935173995
H     -2.083957619252     1.764940648095     6.268263260561
H     -1.158485472566    -0.531469931262     6.252630307441
H     -0.129984160430    -1.353222378922     4.131358889162
O      0.042052061682    -0.077445143749     1.984655222247
H     -0.310218766739    -1.332043014349     1.542485235407

