# STO-3G

title

0 1
C      2.330351351825    -1.361267380099     1.045948075433
C      3.126716483385    -1.194608538870    -0.105612237521
C      3.597450606664    -2.319965943396    -0.811454193278
C      3.276625824405    -3.617896513000    -0.364242213617
C      2.485245934313    -3.788036785211     0.790444821213
C      2.014242365928    -2.660618442638     1.493034253125
H      1.955859253401    -0.501838807401     1.596801714573
H      3.371451451801    -0.195606837994    -0.459743182014
H      4.203631983476    -2.183838723206    -1.704012248122
H      3.642197704380    -4.486594081353    -0.907706856053
H      2.238725066093    -4.788453477314     1.140028441980
H      1.392811944703    -2.790359360948     2.376749698013
C      0.049846554189     2.915411909352     0.961129813384
H     -0.362345943034     2.919184982283     1.965331354395
H     -0.584267885159     3.293149069253     0.163556366570
C      1.389013370202     2.632084803166     0.726396882078
H      1.759119769672     2.647870691017    -0.287584562276
C      2.418818628826     2.466185857603     1.764457437530
O      2.300397517789     3.071274258164     2.865296411901
O      3.647199988504     1.901421402667     1.379587025197
C      4.623617223946     1.754251338325     2.418512711985
H      5.541465577951     1.292504810595     1.995193021690
H      4.898167512199     2.744376197153     2.848163767430
H      4.242055034678     1.088683748342     3.224513093202
Pd    -0.058022998222     0.789784703834     0.174039911078
C      0.709453837312     0.300886889497    -2.541879805751
O      1.401593822284     0.327939127499    -3.572152322318
O      0.782574683038     1.248517971036    -1.582104711917
C     -0.360487246682    -0.801133749314    -2.293771747132
H      0.024551746127    -1.722554193887    -2.748733731547
C     -1.668004831236    -0.423386496663    -2.962639014507
H     -2.422351371810    -1.221929526833    -2.819216544256
H     -2.055840897883     0.515532623412    -2.515542534802
H     -1.509757742151    -0.271483317974    -4.051395429481
N     -0.628295511559    -0.929384522287    -0.847130171606
C     -1.050217456563    -1.997553216525    -0.229230215276
O     -1.427723740298    -2.005955475185     1.033167930793
C     -1.081403688500    -3.311887600872    -0.896738347378
H     -1.754254623397    -3.262192776009    -1.767072937816
H     -0.047513612119    -3.563296667886    -1.192875475255
H     -1.450714390548    -4.074697993210    -0.186234138981
N      0.741569021154     0.639198305061     3.364183728659
C      1.208397594860     0.704450397955     4.650463586530
C      0.374027043115     0.384224391441     5.707002098496
C     -0.933985080855     0.013182839446     5.477605895936
C     -1.379545211596    -0.029033493596     4.181656895415
C     -0.481977506117     0.311700350345     3.141955090873
H      2.235260513858     0.994984091935     4.837041625779
H      0.753055523451     0.436100047275     6.714044259246
H     -1.595533262790    -0.234320093708     6.303406233014
H     -2.386204696599    -0.295882378039     3.932915690711
O     -1.014023670814     0.243821418252     1.910119052043
H     -1.354159295382    -1.060194591103     1.506820388550

