# STO-3G

title

0 1
C     -1.986507573827    -1.185654985286    -2.023600859501
C     -2.081241022418    -2.571354277363    -1.783949273817
C     -3.219345289865    -3.103285561971    -1.144911883605
C     -4.268538074873    -2.249946811736    -0.748217758106
C     -4.179512458546    -0.864358068217    -0.993488429139
C     -3.039584052726    -0.334653546918    -1.629818830477
H     -1.118257364785    -0.769837531035    -2.525057300518
H     -1.273421549818    -3.232738478034    -2.089725240960
H     -3.288629737383    -4.172632578532    -0.958245335124
H     -5.147971769303    -2.660467570656    -0.256956856254
H     -4.991395746125    -0.204686756025    -0.694693246961
H     -2.969969501271     0.735120333229    -1.820828057019
C      1.788964617905    -1.203409378157    -2.121102603540
H      1.838187363385    -2.138980364551    -1.571706687167
H      1.090140485686    -1.082258790952    -2.945283239645
C      2.711759962483    -0.181733315408    -1.895212567615
H      2.665387885721     0.705771135169    -2.512643644919
C      3.894979724387    -0.295246796433    -1.023426123517
O      4.302828544743    -1.430747104991    -0.661207794256
O      4.641435988655     0.866550215802    -0.759653916137
C      5.777006142214     0.693648706623     0.100027878038
H      6.279471555587     1.673078954978     0.250177870445
H      5.462414874189     0.305932345640     1.096259278460
H      6.512721055697    -0.009613846541    -0.352523369284
Pd     0.838693742649     0.239030800533    -0.664650476656
C      0.901961607049    -0.789146514756     1.992610737327
O      1.311519576695    -1.336203166648     3.027905847099
O      1.541875010617    -0.889595986251     0.803617348111
C     -0.424727106696     0.031607114033     1.965929650613
H     -0.508946662501     0.528088264968     2.941289596803
C     -1.613626540662    -0.887477076588     1.773939064949
H     -2.556381414971    -0.306622192605     1.746620920770
H     -1.511573247881    -1.433436443482     0.814299865125
H     -1.666404065521    -1.623081587033     2.603749466721
N     -0.399276842866     0.970429272503     0.828269467977
C     -0.981365585819     2.134293432644     0.747480511048
O     -0.967189665684     2.881504835568    -0.338174642742
C     -1.690026877019     2.720375554203     1.900713289649
H     -2.507251725467     2.043879582895     2.198750072511
H     -0.963172302197     2.862372354151     2.718138526741
H     -2.111507913629     3.701390717357     1.611630570136
N      0.246440943286     0.534626995986    -4.102353100791
C      0.044639901351     0.569666083389    -5.455455657405
C     -0.433425339460     1.720771016254    -6.053548790809
C     -0.706822857829     2.840009363751    -5.296518967355
C     -0.494717057914     2.778079083234    -3.943143515803
C     -0.005314804869     1.572470999251    -3.382446595779
H      0.259077232773    -0.307711117778    -6.054387908722
H     -0.589570843170     1.738179394983    -7.119579856345
H     -1.079389038367     3.748851710441    -5.761603909695
H     -0.680650004151     3.618005250449    -3.305333221273
O      0.167166100548     1.609593414896    -2.056860005275
H     -0.483491177454     2.426517646145    -1.184652922072

