# STO-3G

title

0 1
C      1.686446599738    -1.248443206154    -0.767917159619
C      2.960643820929    -0.797491975806    -0.366419631517
C      3.905362223835    -0.390831663592    -1.329070936210
C      3.576669945169    -0.433587525146    -2.699489600364
C      2.305666485350    -0.888701275395    -3.103963709210
C      1.363506238037    -1.298108358755    -2.138844418077
H      0.970537214116    -1.571582800298    -0.018436771278
H      3.213077122560    -0.765923847866     0.692266598913
H      4.888585914086    -0.047197599483    -1.014749630577
H      4.305230915097    -0.120093909747    -3.443933008248
H      2.052523733159    -0.925471110509    -4.161056451026
H      0.383122993694    -1.649705962546    -2.453675769980
C     -2.233020128780    -0.565154889907     1.962274857878
H     -2.995278125968     0.186376524936     2.145361288131
H     -1.796622216903    -1.062451629543     2.823544188202
C     -1.947516225246    -1.037544244015     0.682936549866
H     -1.241750666632    -1.851969330673     0.598232073431
C     -2.670077392017    -0.631946430445    -0.535856011126
O     -3.806005872438    -0.094153291551    -0.442319775536
O     -2.145281332278    -1.017200671912    -1.782144800991
C     -2.848927020235    -0.521354203425    -2.929545529053
H     -2.339665343515    -0.867355312318    -3.854124711651
H     -3.896471603554    -0.899471665856    -2.945935584949
H     -2.859945448560     0.593266416162    -2.933047534816
Pd    -0.407533101655     0.578994703089     1.310427894572
C     -0.817005597987     2.960168168822    -0.208057747484
O     -1.378845025861     3.868748332811    -0.839101362410
O     -1.470241638693     1.861367006933     0.235306374280
C      0.716665953005     2.985622666294     0.076553202745
H      0.981064113794     4.029911878112     0.288543421528
C      1.487241281790     2.517983894578    -1.141145925064
H      2.576364721220     2.519077530082    -0.939596635226
H      1.181170361927     1.484540356338    -1.401633250803
H      1.278927906386     3.183850573486    -2.004654096051
N      1.030962184767     2.063494598862     1.183908888489
C      1.996564424475     2.170940864413     2.053672858658
O      2.255016311186     1.262481427979     2.973837348989
C      2.877782863139     3.353626820279     2.081304796757
H      3.623631768907     3.230365186490     2.888087396998
H      3.396258366842     3.432055354219     1.112385103224
H      2.263605249565     4.247886485467     2.285580322283
N      0.250109108457    -2.759548685015     1.968110319903
C      0.445502542041    -4.101480376192     2.152356895129
C      1.326528117897    -4.545361829828     3.121264523437
C      2.013016734825    -3.644725401248     3.907642400600
C      1.798909731215    -2.305848952731     3.702221491254
C      0.886124979602    -1.907466345916     2.695057273990
H     -0.092044956452    -4.812919901967     1.536436709873
H      1.473621591633    -5.604026793450     3.257973201428
H      2.705405956829    -3.988062695900     4.671712456483
H      2.298227163511    -1.559198752201     4.285147564194
O      0.746989092903    -0.584220017780     2.565393459145
H      1.645937362486     0.379292838731     2.909504125011

