# STO-3G

title

0 1
C      2.660311022488    -1.749528454908     0.500124713852
C      3.210561056297    -1.261305519306    -0.702938861740
C      4.226803570504    -1.987673468406    -1.354720023188
C      4.692959379825    -3.199138380804    -0.806296277185
C      4.142567386834    -3.685239871565     0.396767526762
C      3.125803811322    -2.959995041521     1.049387915954
H      1.880237008647    -1.189495910851     1.012425528291
H      2.865142559288    -0.318667324673    -1.119930636850
H      4.649729778588    -1.608865358900    -2.282297785029
H      5.477066161159    -3.759236365496    -1.311065650921
H      4.500994274212    -4.620270978146     0.821652697992
H      2.697531990262    -3.333594312881     1.976917964065
C      0.764818320933     2.660213460372     1.583126397373
H      0.936767986279     3.305860088335     0.727475923494
H     -0.130996080710     2.768670899788     2.190119467752
C      1.739493537273     1.765824260772     2.020751169091
H      1.546626706367     1.189512855442     2.915429745550
C      3.117333037770     1.681069689374     1.504372075359
O      3.515237604591     2.485029240128     0.621054433780
O      3.989822766933     0.750451799217     2.093165627980
C      5.306551379023     0.680676828008     1.528148377362
H      5.890220784980    -0.106070474732     2.052184360509
H      5.261415039185     0.411645112190     0.448555711979
H      5.839260075512     1.651412973507     1.644387006639
Pd     0.203934982346     0.687325821063     0.659341189116
C      0.469816668201     0.866487645413    -2.176054714392
O      0.904682287629     1.159694381657    -3.300830606253
O      0.939134930402     1.421271396568    -1.034709539677
C     -0.688204082729    -0.164117657793    -1.989085056184
H     -0.552435658465    -0.928600964176    -2.764826568104
C     -2.036904462979     0.498046982583    -2.179676190701
H     -2.847951724081    -0.250545502287    -2.076168964107
H     -2.177810814942     1.285634042444    -1.410533099428
H     -2.096961654372     0.957794444175    -3.188860071654
N     -0.653486515274    -0.698526389746    -0.616107186759
C     -0.962499715057    -1.902811768655    -0.222463113996
O     -0.957107959002    -2.278962050845     1.040611590416
C     -1.305094355851    -2.959808576559    -1.190834537593
H     -2.182363655992    -2.637672217636    -1.775393610158
H     -0.425944256467    -3.131842081651    -1.835657410965
H     -1.544391337614    -3.892143316673    -0.645835620965
N     -1.084327412173     1.463749135501     3.727249993318
C     -1.636627637715     1.889160123264     4.905186832342
C     -2.133874480334     0.968171454164     5.808980041549
C     -2.074949514677    -0.381756716861     5.534864333187
C     -1.516006819212    -0.780523113138     4.347920366316
C     -1.025776395897     0.207061890486     3.458086531013
H     -1.682132381709     2.949156253207     5.126178769329
H     -2.565255440716     1.313253762103     6.734127961489
H     -2.459103740635    -1.110894513562     6.243311046373
H     -1.432200902915    -1.814828210144     4.083517165371
O     -0.484444274966    -0.282970801841     2.335090040553
H     -0.765326927874    -1.484022427777     1.734053292301

