# STO-3G

title

0 1
C     -2.516353095664    -1.276580325466     0.205751353647
C     -2.010420422879    -2.406397111018     0.877832691902
C     -2.657156793535    -3.651700026209     0.747371580280
C     -3.808022293139    -3.767265810183    -0.057443632040
C     -4.312599341983    -2.636896710450    -0.731767002977
C     -3.666947822779    -1.392384147987    -0.598343962752
H     -2.020723299704    -0.315485692460     0.306868448917
H     -1.122294316992    -2.316614632417     1.499570473069
H     -2.266517653906    -4.522698867592     1.268064699132
H     -4.306326043619    -4.728658253294    -0.159486695731
H     -5.198979995187    -2.725302851034    -1.355913651210
H     -4.053388814940    -0.518137768084    -1.118791707779
C     -1.370940601554     2.693050294397     2.580414193324
H     -0.549679767712     3.173436303106     3.104332241211
H     -2.043739756868     3.305612103298     1.989770607555
C     -1.715932831069     1.363279408729     2.811707959318
H     -2.602961056276     0.984218165749     2.325433526224
C     -1.075712889443     0.498680155535     3.820021168397
O     -0.386261856392     1.014771943073     4.741055226990
O     -1.385486928797    -0.872047594784     3.820789270257
C     -0.649551686277    -1.673134758873     4.755224424850
H     -0.960775189446    -2.734804969126     4.655613717161
H      0.444591253644    -1.608823412467     4.551726552680
H     -0.850354023629    -1.347271140686     5.801026752658
Pd    -0.411856336948     1.563431430520     0.882966836485
C      2.109610377450     0.328774638323     1.382378366283
O      2.947231395288    -0.389261615952     1.949886289329
O      1.061887964754     0.889749132397     2.029845137178
C      2.210519284852     0.695774715370    -0.127597195762
H      2.723238270420    -0.136874732138    -0.625456170685
C      3.021793962100     1.962517407540    -0.313939288771
H      3.112060587488     2.209343013212    -1.390269903835
H      2.519021342364     2.806032342166     0.203702654808
H      4.039267822551     1.829222812066     0.110836049840
N      0.856362496772     0.956856578086    -0.654021202672
C      0.443369332110     0.763483793571    -1.878491421160
O     -0.746569089763     1.122802300977    -2.306192578075
C      1.292523199627     0.092243902329    -2.880908860412
H      0.742771108357     0.033981232313    -3.838616825426
H      2.212754604090     0.680943204507    -3.022184623247
H      1.513820959343    -0.930181462077    -2.527292384068
N     -3.846058518027     2.163283618428     0.799671842422
C     -5.207732193478     2.290326494320     0.847074026009
C     -5.918116578515     2.548166581321    -0.311021251152
C     -5.263594300804     2.685613132372    -1.516440158943
C     -3.898767925373     2.553026868432    -1.534486562447
C     -3.222794870622     2.281254516371    -0.318364632763
H     -5.725274983908     2.186086726606     1.793531565865
H     -6.990240847199     2.645131514383    -0.263568146026
H     -5.815972576305     2.893588012754    -2.428964555289
H     -3.335903201693     2.655286952387    -2.439944739544
O     -1.891074754098     2.155191073231    -0.441757560376
H     -1.345131140286     1.623529486899    -1.557794785406

