# STO-3G

title

0 1
C      2.395853312075    -0.645550387085    -2.292910220028
C      1.511449155199     0.158941915846    -3.074539599635
C      0.588671708274    -0.473933282689    -3.956553787698
C      0.565935632767    -1.867053452865    -4.070202121049
C      1.469588117465    -2.662682310414    -3.315152518430
C      2.372553421930    -2.061362644271    -2.432715119902
H      3.167631706036    -0.163397099152    -1.702266605593
H      1.652831828603     1.236478180274    -3.103552214717
H     -0.085890395357     0.135336726562    -4.552914475737
H     -0.141073712201    -2.345189871362    -4.744350937173
H      1.458484217991    -3.743670422689    -3.434353776730
H      3.073386809506    -2.668867602428    -1.866558134122
C     -0.735514672100    -1.556778448843     0.651164963413
H     -1.453177753046    -2.367077267153     0.816281265091
H      0.240438277345    -1.816833502084     1.076616767441
C     -0.594085663510    -1.120683364721    -0.787177980221
H     -0.167420900907    -1.959459568667    -1.334054268538
C     -1.795458176305    -0.602342462851    -1.468104629152
O     -2.294382590093    -1.279476891176    -2.406389360671
O     -2.053548982948     0.775921327923    -1.364535013970
C     -3.149516129858     1.268213437959    -2.147735871678
H     -3.268368688444     2.358717297126    -1.969964853545
H     -2.961693883534     1.112671707994    -3.234483776334
H     -4.099162359854     0.762813484856    -1.859715758704
Pd     0.819459208730     0.379059576812    -0.819036393606
C      1.880981634144     2.901070488104     0.123890870518
O      2.141772929467     2.012155260587    -0.824842041196
O      2.238029341270     4.101991910043     0.144188826634
C      1.111044567652     2.330044367590     1.376391083104
H      0.519530373815     3.160326110247     1.784524711116
C      2.113434348398     1.874786634982     2.420180605396
H      1.598984393906     1.545209459095     3.343166285220
H      2.701016384269     1.022738662515     2.019709327456
H      2.803642088374     2.705219512484     2.678321682947
N      0.277646962168     1.141364443669     1.032185706178
C     -0.744718482517     0.724408101675     1.696703457428
O     -1.330965135949    -0.485946200366     1.532986456312
C     -1.409406025966     1.551570632563     2.723866023575
H     -0.703618646220     1.745348296934     3.546035740530
H     -1.749754310760     2.483694697653     2.243948961488
H     -2.285712150456     1.006186988074     3.121366959053
N      1.925010093637    -1.755637932441     2.462534387679
C      3.255503653369    -1.971525440022     2.226545507950
C      4.175444013641    -1.790518588445     3.244233302128
C      3.758972723790    -1.406995027523     4.503498502259
C      2.418530960575    -1.203247129334     4.709720739673
C      1.531186746807    -1.395779155357     3.630333475813
H      3.585015139924    -2.275066847945     1.239727119961
H      5.222060938326    -1.958683545157     3.050140613736
H      4.474662937651    -1.268861074431     5.309568851104
H      2.020167591890    -0.905358322606     5.658504924655
O      0.238393616024    -1.141729046651     3.937852425639
H     -0.364137100829    -1.199986276008     3.161644878839

