# STO-3G

title

0 1
C      0.498621938918     2.994076458119     0.080864734729
C      1.570104362768     3.889854086995     0.296206822198
C      1.406575006562     5.264395980950     0.022110404554
C      0.179187771545     5.751506481116    -0.466492308450
C     -0.886911865382     4.857163971681    -0.682861234059
C     -0.729890802216     3.481136049298    -0.413446444968
H      0.574739622019    -1.374696316226    -0.429724865678
H      2.527242234522     3.533434081087     0.675045192367
H      2.236193480091     5.947375308640     0.194028893744
H      0.053673835623     6.811766753089    -0.673410117959
H     -1.840156650380     5.224186676497    -1.058562524201
H     -1.562047334255     2.802823792173    -0.592161023682
C     -0.607365441187     1.129376568618     2.189091524926
H     -1.267731688261     1.985584756767     2.090954640065
H     -1.088213313726     0.160444231971     2.086618003509
C      0.694666936654     1.252630028167     2.680171107556
H      1.261529663550     0.356279494939     2.894582768621
C      1.258121407579     2.502802491919     3.217595078882
O      2.491756566583     2.555233529763     3.462083600722
O      0.439794994849     3.640337273687     3.337125489991
C      1.083164970637     4.832077750541     3.808416119280
H      0.338805405141     5.655642016830     3.856176661380
H      1.501606872446     4.678605050037     4.828872000298
H      1.897473724900     5.142387774748     3.115714227248
Pd     0.748865194264     1.040393180957     0.390083772987
C      0.603720650118    -1.992236566233     1.739253943777
O      0.896795588219    -1.149101523409     0.721233465316
O      1.097829006443    -1.895315124836     2.876019777836
C     -0.438844401777    -3.101632554042     1.378958748265
H     -1.030073559577    -3.262586607819     2.285659562660
C      0.231125575695    -4.400104522798     0.986978504821
H     -0.538309380548    -5.164947367348     0.753334910946
H      0.870734468147    -4.236396591619     0.093867561800
H      0.862773646097    -4.767563404867     1.822745312728
N     -1.324082597351    -2.700657106777     0.290347061983
C     -2.310467891977    -1.793263267056     0.501938355263
O     -2.568096348230    -1.265476138750     1.612465731072
C     -3.101815711556    -1.421622943550    -0.688140774473
H     -3.575231168045    -2.334975270676    -1.087087067955
H     -3.875279877452    -0.695312998935    -0.380953664133
H     -2.424424369934    -0.966071152419    -1.433377931266
N      1.134824620845     0.747587287300    -1.714846088976
C      1.594339803316     1.760628324030    -2.519359535756
C      1.587844417643     1.622823747026    -3.892869178698
C      1.137002112846     0.463888136158    -4.479569040021
C      0.710528026531    -0.549410863638    -3.666835364239
C      0.741269742190    -0.381081015262    -2.262973931110
H      1.976294793763     2.675298164824    -2.088927313808
H      1.947028887910     2.432309973688    -4.506777667223
H      1.134735898885     0.350449014179    -5.560319979279
H      0.377624908168    -1.489672779734    -4.055253007421
O      0.349757657890    -1.424410944057    -1.579624796749
H     -1.018864425932    -2.839303688300    -0.666980416289

