# STO-3G

title

0 1
C      0.443353721551     2.589015918191    -1.191001364624
C      1.415692840259     3.585112251001    -1.427733398311
C      1.148220507976     4.620034834027    -2.348868446822
C     -0.082509573986     4.663516444181    -3.031782738171
C     -1.047530094101     3.665939578471    -2.793432583136
C     -0.787908062967     2.625272570894    -1.876343407857
H      0.927626638472    -1.385654103918     0.543721277980
H      2.371357049297     3.569195066369    -0.905285037404
H      1.899610895919     5.386913252919    -2.526245188549
H     -0.288138811667     5.463940902021    -3.738622672128
H     -2.001618941529     3.691607542247    -3.316059974431
H     -1.539713444733     1.856624080986    -1.708279644054
C     -0.650771987341     1.802725832817     1.519822559409
H     -1.420200481742     2.363119644281     0.999745898436
H     -0.957015476238     0.823965894287     1.869094568624
C      0.556286816524     2.371788824584     1.935523795586
H      1.216512949665     1.804696379772     2.578372596687
C      0.879253606759     3.802219562322     1.797109015308
O      2.049516856542     4.186795111127     2.054014698209
O     -0.093831445442     4.690711822934     1.307004879808
C      0.331245053377     6.046792977668     1.115390733922
H     -0.517862454302     6.644476643139     0.719678970099
H      0.659528018525     6.499139485251     2.078478698341
H      1.162990667198     6.099690058844     0.377246479149
Pd     0.872231324990     1.093148683104     0.052632109791
C      0.988119305182    -0.889065700370     2.749345237190
O      1.272056406427    -0.617805441437     1.455060173797
O      1.429722316853    -0.227306036597     3.707701835006
C     -0.041013271634    -2.054580583474     2.951377557449
H     -0.370820156859    -1.996400015330     3.992813747289
C      0.565184441203    -3.424037175464     2.733448015344
H     -0.206814712056    -4.204500181212     2.895262236941
H      0.951071275553    -3.513972745554     1.696002995670
H      1.402311670943    -3.587511630686     3.443422157886
N     -1.156682927761    -1.889769625443     2.014097193272
C     -2.329926048459    -1.216899709225     2.189189588373
O     -3.054147117410    -0.845109452124     1.234412959849
C     -2.762926772994    -0.936404551200     3.575613208342
H     -3.751182988565    -0.441947371244     3.537979881227
H     -2.850874248427    -1.897777977702     4.109750450717
H     -2.031718785997    -0.264535943414     4.058170103673
N      1.315392039062    -0.161641025132    -1.630249934811
C      1.707612755406     0.330357679804    -2.849361414074
C      1.665780445071    -0.471473098367    -3.972435882443
C      1.241550213035    -1.777769709057    -3.885883848171
C      0.883026137185    -2.263078321970    -2.658381771812
C      0.948628236423    -1.418563392581    -1.527204267295
H      2.059060037618     1.349414651754    -2.941362617210
H      1.968611924880    -0.065825883899    -4.923454440952
H      1.205666782102    -2.411776234692    -4.767642473433
H      0.566269933263    -3.275477658699    -2.513470168305
O      0.623592093485    -1.985307265431    -0.392543646114
H     -0.951703508038    -2.070467280134     1.029766865125

