# STO-3G

title

0 1
C      1.100723171327     2.830115998445    -0.401092318725
C      2.111397338139     3.776337704292    -0.126390176423
C      2.137097865115     5.003732877082    -0.823051393419
C      1.158152936509     5.294702948595    -1.791993822812
C      0.148145568234     4.351392071629    -2.063867538822
C      0.118239599411     3.122125816853    -1.373633605972
H      0.600308598446    -1.429111906238     0.402917169532
H      2.878085993054     3.572944382689     0.618440548026
H      2.919184127506     5.727681021093    -0.602638803907
H      1.180034346969     6.242482613673    -2.324875430369
H     -0.617853581387     4.567427262958    -2.806384926898
H     -0.672260768615     2.405465823193    -1.591245277505
C      1.013909525797     1.899478891480     2.591660611815
H      1.585793626858     2.821272882260     2.616613900596
H      1.427283627174     1.039636461677     3.113040191878
C     -0.314306252210     1.873776102873     2.161011582118
H     -0.909831787166     0.980822242910     2.292133033391
C     -1.089087115611     3.065424306275     1.772918245357
O     -2.189456639711     2.906319275870     1.180853663185
O     -0.520390209748     4.342315452703     1.932071195133
C     -1.270751515800     5.435609161086     1.386670490073
H     -0.721536872717     6.384073581713     1.567547011605
H     -1.398122858975     5.315853559672     0.287132107826
H     -2.270563542794     5.510592342102     1.870986033244
Pd     1.088501172278     1.056696725191     0.509607117513
C      0.643341239686    -1.478239911134     2.646188320724
O      0.968068244196    -0.941968717639     1.444580795041
O      1.179892587596    -1.141846877664     3.714848444862
C     -0.488956314694    -2.554536976818     2.568172719120
H     -1.036954482648    -2.487470604851     3.512631498366
C      0.065615486165    -3.952898884849     2.409071335924
H     -0.767692412820    -4.684546097663     2.366378705792
H      0.658535977740    -4.015513276481     1.471803824973
H      0.720215648684    -4.200722351859     3.270572371892
N     -1.399637781806    -2.294444409080     1.455975616838
C     -2.254619558937    -1.242530735369     1.523323294580
O     -2.366678622701    -0.490456897006     2.523479135318
C     -3.053928270483    -0.985198148017     0.309685547037
H     -2.359860151748    -0.788534569596    -0.526808892155
H     -3.679376082666    -1.871680977210     0.113043212776
H     -3.689373525629    -0.096854077786     0.486849546535
N      1.561864972912     0.110537798005    -1.351355705575
C      2.268936287664     0.755250423324    -2.334326267577
C      2.347085562560     0.218873589381    -3.603775372183
C      1.730519222310    -0.975119105599    -3.899947758336
C      1.055419785571    -1.622171689817    -2.901438033811
C      1.005009272009    -1.052405334791    -1.608351481306
H      2.773906103276     1.689233013485    -2.122261632115
H      2.898865147356     0.743425751272    -4.366210015347
H      1.791298703364    -1.400929762665    -4.897861761690
H      0.579186405969    -2.568493902495    -3.054384442375
O      0.377019197703    -1.766813970541    -0.710409425975
H     -1.180543568036    -2.667684781056     0.538619849230

