# STO-3G

title

0 1
C      0.346052171090     2.865187015854     0.163428667549
C      1.389484384341     3.813799622885     0.242476525143
C      1.125406518808     5.172586621225    -0.031475124440
C     -0.172652657046     5.587519176044    -0.385825329671
C     -1.210115628036     4.638403958178    -0.463836303026
C     -0.955472071293     3.277669444681    -0.190791637141
H      1.169607467785    -1.512751153004    -0.150244576916
H      2.399501385487     3.509697089202     0.513670565450
H      1.932759695389     5.899170966497     0.035027933313
H     -0.374755727682     6.635727057672    -0.593374931460
H     -2.217642307668     4.951448283485    -0.730645004060
H     -1.768984816246     2.557539393562    -0.251552121613
C     -0.502425006069     1.041765357303     2.358253702815
H     -1.186810848743     1.879966643552     2.280953625580
H     -0.975260468936     0.067101960665     2.303674505139
C      0.824560936803     1.202229748791     2.762333522307
H      1.425323022674     0.323935579141     2.952747795219
C      1.397135363865     2.475931065481     3.230375546838
O      2.642985679319     2.557792044960     3.388908490335
O      0.565945725795     3.601021664751     3.375178061048
C      1.215568121567     4.816983823343     3.769790935747
H      0.459658107213     5.627708782701     3.846791359691
H      1.705421100122     4.699546931898     4.762909511971
H      1.974563256844     5.122859412046     3.015020921368
Pd     0.743797750607     0.938037799269     0.480252109133
C      0.515308536959    -2.011500095975     1.889595058231
O      1.170304737765    -1.213818820412     0.995845210728
O      0.769666810341    -2.009583649361     3.103936833161
C     -0.610755265125    -2.905061259988     1.272328179170
H     -1.372498227786    -3.018587250722     2.049439849822
C     -0.093363285771    -4.272678727710     0.883211495731
H     -0.919167277758    -4.881396673879     0.460151725993
H      0.711081862324    -4.167174566379     0.123731288835
H      0.316869381221    -4.790711348126     1.775243067036
N     -1.215754694869    -2.297821975159     0.091200723261
C     -2.179184783555    -1.349942857910     0.200104126163
O     -2.662606874674    -0.937561670852     1.283509195965
C     -2.656078497574    -0.781228576603    -1.077245204937
H     -3.060022331855    -1.604521914168    -1.691899268868
H     -3.454735854698    -0.049849607393    -0.857645344287
H     -1.812355229628    -0.282556902910    -1.586737732767
N      1.121205071584     0.619708508941    -1.643027763075
C      1.201066658586     1.656760089285    -2.542972975018
C      1.233542907689     1.411057131676    -3.900536298769
C      1.212513550744     0.125359215141    -4.382906673474
C      1.161305977608    -0.899725518293    -3.482155668959
C      1.136882636669    -0.618592255016    -2.096078208428
H      1.241825090316     2.682581912106    -2.211430890540
H      1.291353987062     2.240719895514    -4.586269178428
H      1.249384098886    -0.071104020168    -5.451178532147
H      1.176351491020    -1.926312523905    -3.788117479740
O      1.114158324813    -1.680461837972    -1.338350187144
H     -0.714764908073    -2.379868800121    -0.790222925328

