# STO-3G

title

0 1
C      0.095667289055     3.199190554788    -0.682759351887
C      0.833718125258     4.395593858810    -0.542433638528
C      0.444629302592     5.551856173288    -1.251280662352
C     -0.680382171180     5.523581175824    -2.097158166964
C     -1.414986920064     4.330535342440    -2.236112839469
C     -1.028013450638     3.168908159033    -1.535285898628
H      1.013774653359    -0.950635137113     0.159076274378
H      1.711599260595     4.437882720827     0.100587485190
H      1.018880573874     6.469085554928    -1.135997109858
H     -0.981594064445     6.417660658369    -2.637920349290
H     -2.286860994819     4.298281407880    -2.886511950277
H     -1.602804012233     2.254690074812    -1.663758512794
C     -0.921061026697     1.894841562815     1.846813566879
H     -1.175799443773     0.941342560192     2.295665093857
H     -1.701655540158     2.326826846196     1.228969966335
C      0.202460263191     2.631508305355     2.212913276693
H      0.319931624924     3.634753665145     1.836624003744
C      1.110920685731     2.286217443675     3.318260902406
O      2.203214488419     2.908047403521     3.395670666086
O      0.618750718308     1.540867985394     4.399843242765
C      1.574257808316     1.211645030439     5.416963929804
H      1.078920202076     0.593094025181     6.195506883475
H      2.411432234007     0.613311087113     4.990125701693
H      1.976275932697     2.130720131621     5.899280098558
Pd     0.654315540031     1.522707289006     0.256065579529
C      0.558603667770    -1.211335199491     2.230261963312
O      1.083774580522    -0.471885628735     1.202080699855
O      0.981306584177    -1.151847816415     3.390764230677
C     -0.618899294553    -2.162899674831     1.823488843798
H     -1.361112666235    -2.086335486631     2.624627709858
C     -0.157568586374    -3.599990667219     1.718816733096
H     -1.016282204134    -4.252772704990     1.458025794533
H      0.620380765357    -3.685752050484     0.930597256910
H      0.268370441579    -3.934186279060     2.688093514652
N     -1.250304615304    -1.802771017316     0.560316465418
C     -2.310067092482    -0.959363042787     0.498455358310
O     -2.861266473785    -0.412729609325     1.485211762429
C     -2.816302277796    -0.690460737878    -0.863695626586
H     -3.153366830072    -1.647934907958    -1.297817285987
H     -3.668146119134     0.009420333297    -0.788911009805
H     -2.004063482764    -0.249622572522    -1.468070870879
N      1.509196312708     0.833132867220    -1.580019556569
C      2.023156833527     1.697078617096    -2.513949922645
C      2.323376383824     1.253680609464    -3.785941846680
C      2.133740274727    -0.063657035300    -4.133509496656
C      1.654008456073    -0.922361912673    -3.183253074729
C      1.368490626246    -0.441250653268    -1.884646045945
H      2.201683053499     2.733782582383    -2.262232689114
H      2.718490747182     1.948929498041    -4.508321990471
H      2.375973230934    -0.416768167597    -5.132321929084
H      1.520507705753    -1.967422342293    -3.374317579942
O      0.964661687688    -1.339921975474    -1.032798005551
H     -0.736539607983    -1.996137576240    -0.296966384762

