# STO-3G

title

0 1
C      1.836084974476     3.045777140138     1.368840928225
C      2.336000862154     4.199830971860     0.722155012343
C      2.882877282738     5.262656502435     1.464228333937
C      2.940245413955     5.189302056823     2.869809048789
C      2.455401413012     4.039779814708     3.521630655013
C      1.908277863849     2.975993257229     2.778172465442
H     -1.893880772769    -0.695590566058     1.888797495135
H      2.312950977037     4.270821697528    -0.364088601879
H      3.266512497030     6.141282866341     0.949609234218
H      3.363468189193     6.009954607032     3.444741526626
H      2.509076431962     3.964421196236     4.605575837388
H      1.560755121335     2.080114847921     3.288163175607
C      1.248602978094     1.876595768775     0.575984753395
H      2.052352493888     1.363194350533     0.028368563432
H      0.844971228829     1.144988498556     1.279668984996
C      0.180711154973     2.304124764963    -0.438859168017
H      0.592088226839     2.983463402480    -1.203059755789
C     -1.148132207060     2.777112620738    -0.001664453888
O     -1.932696590019     3.176930261015    -0.902155062630
O     -1.582945484098     2.592317688220     1.320895995335
C     -2.925100897733     3.014430676363     1.600931731052
H     -3.149856854893     2.845909622063     2.675392745531
H     -3.051599218149     4.100376637526     1.389364670261
H     -3.656133531379     2.428229283477     0.999257389565
Pd    -0.139084105766     0.867500382768    -1.867918969839
C      0.152224278048    -1.175927417675     0.155189775903
O      1.264321089574    -1.420627159430    -0.417026993898
O     -0.763243690069    -0.352451586728    -0.293287807276
C     -0.160099263296    -1.829452920113     1.518465324602
H      0.790421835174    -1.971082935406     2.039424862411
C     -0.859399704594    -3.162902372172     1.373873871044
H     -1.019895939741    -3.602968394026     2.379857375773
H     -1.846289936691    -3.012317219975     0.890632289317
H     -0.242999329732    -3.856927095849     0.766098270294
N     -1.010005597698    -0.950712433113     2.315531661519
C     -0.463511041404    -0.160546298484     3.282009704011
O      0.755857340300    -0.144030362215     3.580653001393
C     -1.388485177477     0.714064893361     4.032861185789
H     -1.284637690147     0.464350694648     5.101415963124
H     -1.072867509528     1.754308789616     3.846990356763
H     -2.428461447106     0.555329343207     3.700618032382
N     -0.042695344156    -0.410880076008    -3.616163807330
C     -0.926944446117    -0.277847845308    -4.653836271867
C     -0.656702048256    -0.864058917116    -5.872962503397
C      0.494650158105    -1.598025072695    -6.058049680185
C      1.352076003701    -1.738117104069    -4.999095426483
C      1.034952363971    -1.136712906991    -3.762461173424
H     -1.829662896622     0.307494434473    -4.521309134214
H     -1.354362029723    -0.745006616687    -6.686338755494
H      0.712668304669    -2.061377068193    -7.016855998584
H      2.255410553191    -2.311784624000    -5.069985299507
O      1.911975807348    -1.372264507093    -2.810386287104
H      1.629313848815    -1.261227719247    -1.802227503152

