# STO-3G

title

0 1
C      0.070656696361     3.777977678801    -0.659602053328
C      1.208211547458     4.615121744838    -0.608128431548
C      1.576564836802     5.402910569183    -1.714973396778
C      0.806261090269     5.368457543188    -2.894382785679
C     -0.336702150946     4.547462153715    -2.952032928225
C     -0.700095584341     3.760472011617    -1.842254461486
H     -3.020928534894     0.193457680184     1.563239958336
H      1.800736551578     4.660632926185     0.305357851459
H      2.449199569530     6.049987720992    -1.653354966877
H      1.083255449303     5.983106794082    -3.747960086226
H     -0.946631732760     4.525694842790    -3.852647591755
H     -1.588625401530     3.132920120507    -1.892745997646
C     -0.277559372301     2.887832336889     0.519655645068
H     -0.177169351160     3.453358673359     1.462069178433
H     -1.321547932330     2.552734097965     0.475919673905
C      0.644664001346     1.655885284815     0.589745726744
H      1.679500713893     1.898477399666     0.365051947788
C      0.617778507126     0.786125960683     1.785279379889
O     -0.064773164119     1.120307531568     2.787680920739
O      1.508180495999    -0.295265948865     1.830443071813
C      1.394886502246    -1.150707189706     2.977128788002
H      2.135969947289    -1.974934923602     2.897519496016
H      1.596450266590    -0.589226934430     3.917442271470
H      0.381129405011    -1.608204778073     3.034834976311
Pd     0.114757081512     0.562951769385    -1.083826296357
C     -1.409768164487    -1.305034504181     0.277690375029
O     -0.384738910606    -2.000260858786    -0.024458492730
O     -1.640388635853    -0.081987448046    -0.178828941789
C     -2.436462260302    -1.799168921619     1.313007301805
H     -1.960398653730    -2.536065150679     1.964226318713
C     -3.668948635269    -2.402551171175     0.677141844365
H     -4.351940385876    -2.761509902407     1.474746188345
H     -4.195139097098    -1.626558931087     0.084134774173
H     -3.388263759842    -3.254558832707     0.024613821846
N     -2.846679175301    -0.644197173409     2.111750384559
C     -2.567533214252    -0.581171317281     3.445690294703
O     -2.044783329432    -1.511649000187     4.106018256069
C     -2.956869760437     0.662534015996     4.146399624030
H     -3.648495326114     0.383591148434     4.957611462741
H     -2.034462600412     1.104209454243     4.558819686470
H     -3.441355175173     1.368790894132     3.450831815860
N      2.041529042946     0.530527113836    -1.746987046239
C      2.698822579929     1.554750371224    -2.374444910833
C      4.013779737713     1.392312126258    -2.755963832000
C      4.672762873653     0.205563611291    -2.515802158283
C      3.989318916573    -0.804812356569    -1.890241382854
C      2.647427050124    -0.605461614142    -1.506650559048
H      2.185294854430     2.489172572193    -2.568876336465
H      4.526680580410     2.203599731571    -3.246822054556
H      5.709192463479     0.073868395133    -2.815629121696
H      4.445947585281    -1.750588018567    -1.673189238040
O      2.101909469348    -1.649140283715    -0.914643903754
H      1.127609496759    -1.637651114184    -0.587208522084

