# STO-3G

title

0 1
C      1.831813302962     2.213051820328     0.770728624307
C      2.489015579609     3.111549366584    -0.102397468890
C      3.294824607224     4.147820111847     0.401565669221
C      3.457838926078     4.303262544003     1.792544592753
C      2.821037851774     3.404247684698     2.668681584615
C      2.015513234989     2.365689063040     2.162477403758
H     -2.265572669186    -0.953962034943     2.420841492092
H      2.389447671090     2.991184602752    -1.180922895930
H      3.799345578365     4.825307535971    -0.284261967684
H      4.081565984425     5.103441756199     2.184603839347
H      2.959379921792     3.501364360058     3.743248229562
H      1.558642664546     1.649706976064     2.841093107474
C      0.948655722766     1.092382320936     0.222876751680
H      1.543488596419     0.436421612192    -0.422599461100
H      0.589683421004     0.475822885583     1.048232009425
C     -0.204554466993     1.682408968438    -0.607974126841
H      0.181709150627     2.279282320025    -1.427354369169
C     -1.342296665761     2.371018144830     0.032180068094
O     -2.239754845740     2.804423447729    -0.738263226283
O     -1.563410550411     2.253755538364     1.414435903795
C     -2.786448199213     2.824628520574     1.900890907557
H     -2.843682263742     2.696403910999     3.002331896198
H     -2.831897133040     3.914624672151     1.677764541485
H     -3.666655007474     2.312859962453     1.449795101281
Pd    -1.242690589733     0.248128238832    -1.705837192346
C     -0.790732873768    -1.648513171177     0.285317132289
O      0.147402902104    -1.948799423029    -0.530873048795
O     -1.762178100219    -0.794689962376     0.042077405071
C     -0.775564659577    -2.247503806332     1.707818019956
H      0.264508407863    -2.449223801502     1.975438912346
C     -1.581591500744    -3.522841178896     1.813939617513
H     -1.503030869364    -3.920097260587     2.847139528137
H     -2.647670807685    -3.306120875306     1.597617932505
H     -1.197451883155    -4.281150943495     1.101062728038
N     -1.330648944866    -1.276244955409     2.648015268025
C     -0.506116372559    -0.489781220791     3.393749068899
O      0.748236992715    -0.559179620183     3.385256695358
C     -1.153241886357     0.493859017686     4.287955312333
H     -0.808819424734     0.282693300991     5.313608959588
H     -0.816639282630     1.493332750596     3.966801910448
H     -2.251931765875     0.411305154145     4.227926163254
N     -0.091841298765     0.661345102252    -3.352856570887
C     -0.361143005268     1.600119720034    -4.312443954213
C      0.508145768344     1.773821835179    -5.367851033046
C      1.649000194980     1.007915669473    -5.470433627275
C      1.893701655512     0.071996690895    -4.500179583076
C      0.985026953223    -0.083265589831    -3.432767072216
H     -1.254241271335     2.209937060858    -4.236022394187
H      0.291876832886     2.518154226732    -6.117481000211
H      2.338535246382     1.143544666189    -6.299759674991
H      2.766478646760    -0.551503419771    -4.520666945545
O      1.341659764806    -1.001690009655    -2.564222043295
H      0.744057314848    -1.306349104931    -1.757011712727

