# STO-3G

title

0 1
C      1.752399627201     2.162587609653     0.776363852611
C      2.917999085522     2.418239866533     0.019213105750
C      3.805654918593     3.447359314522     0.383735316670
C      3.539779289924     4.242114803876     1.515625162175
C      2.382478518507     3.995980023465     2.279375564329
C      1.497601136299     2.966461112264     1.910291475212
H     -1.643538406596    -0.554193329297     2.370711027917
H      3.138154561938     1.795765600149    -0.847682875852
H      4.703622726505     3.621324660149    -0.205009260439
H      4.227621591501     5.034032964407     1.802368994028
H      2.175052554585     4.598598998527     3.160757979676
H      0.610164375657     2.785765218332     2.514423555167
C      0.781744517958     1.071845968079     0.340231342655
H      1.319152450598     0.330878689502    -0.258522416940
H      0.372105071745     0.539758408436     1.203048984783
C     -0.336786664076     1.699135592004    -0.518087681864
H      0.090625641183     2.304452445098    -1.311100927172
C     -1.482373332495     2.387958676467     0.107977692167
O     -2.372425261984     2.821664883451    -0.670134897218
O     -1.726829655712     2.239036780179     1.483418370643
C     -2.973816121492     2.758017358337     1.963845716233
H     -3.043858955214     2.586595395626     3.059681914543
H     -3.047271072425     3.852966357891     1.775735211301
H     -3.830588683136     2.236360096196     1.480095834454
Pd    -1.382459880712     0.304195424682    -1.652059127928
C     -0.906124270293    -1.703591084285     0.222341781525
O     -0.010828239361    -1.974334108602    -0.649432488856
O     -1.858363320148    -0.802476181436     0.067515543966
C     -0.834667010056    -2.338735453528     1.623978379044
H      0.125348864404    -2.844990987423     1.744968503115
C     -1.966483831865    -3.302710479620     1.901025816380
H     -1.841928126071    -3.728009810441     2.918408055416
H     -2.932701976741    -2.758979107722     1.860212918531
H     -1.961976370536    -4.125220113329     1.157048782166
N     -0.918320794841    -1.232963037907     2.582610672951
C      0.094014843319    -0.979086352207     3.458214099661
O      1.109579601410    -1.697911711067     3.600709560398
C     -0.036551605568     0.239060232982     4.288192571163
H     -0.075227462156    -0.083512608297     5.341361081568
H      0.863207901562     0.851042929024     4.110196570230
H     -0.946463870302     0.803913450641     4.020251496487
N     -0.272540259384     0.796797613062    -3.306035098377
C     -0.567405027258     1.777285293843    -4.215056429840
C      0.282873220034     2.010611706301    -5.274600600077
C      1.431156523494     1.264892400950    -5.429984901756
C      1.702209332639     0.287693120384    -4.508402306557
C      0.811354276109     0.071291490180    -3.436756165024
H     -1.466065400751     2.371933979607    -4.095974172229
H      0.046601098686     2.787320505530    -5.984229752665
H      2.106034897600     1.448117477332    -6.262184440298
H      2.581441979199    -0.323537374980    -4.571574282069
O      1.192895333643    -0.881517275976    -2.615068842407
H      0.595508215107    -1.243392249810    -1.836203257004

