# STO-3G

title

0 1
C     -0.162811249908     3.284029586734     0.478584754482
C      0.625055715532     4.266032723848     1.118986339935
C      0.928739964527     5.484659810270     0.481067175781
C      0.435767799688     5.748396689892    -0.810899765845
C     -0.365865290918     4.784854038662    -1.454850204320
C     -0.662320144559     3.568640906046    -0.813489538691
H     -4.319634982531    -0.309286397274     1.116319398956
H      1.010314753138     4.073361436038     2.119172674907
H      1.539900721375     6.224855983491     0.992984179440
H      0.663039953360     6.691536925594    -1.302721385621
H     -0.765977880202     4.985174619590    -2.446625164716
H     -1.296692923084     2.836782479566    -1.312362771998
C     -0.488441286816     1.965897833260     1.159250372484
H     -0.486182870028     2.086172596407     2.253928918603
H     -1.504279349862     1.651316318250     0.896546404110
C      0.416260992992     0.755726809663     0.847916120476
H     -0.011183608582    -0.139327972457     1.298747940288
C      1.872387913392     0.797321139431     1.121137532359
O      2.456806401890    -0.280236877319     1.406912731817
O      2.602640098922     1.976990335295     0.896418260400
C      4.012512293999     1.900532115082     1.148292239858
H      4.476506753795     2.888053563914     0.939201618639
H      4.209625014291     1.640504503093     2.212910453675
H      4.492534740401     1.142073878744     0.488576355586
Pd    -0.005198329909     0.358336932142    -1.148094370438
C     -1.827425258228    -1.454579724861    -0.066667998638
O     -0.853714671791    -2.245007485543    -0.317579193014
O     -1.937473992906    -0.224536233488    -0.513548007499
C     -2.936860480886    -1.925244071030     0.906456975836
H     -2.441542246210    -2.556058292030     1.651286354938
C     -4.018724207135    -2.728749271647     0.218490804599
H     -4.761200251619    -3.066019651932     0.971186110976
H     -4.532940822305    -2.094658246691    -0.532118793975
H     -3.577876395022    -3.616251044650    -0.280882534568
N     -3.558288315693    -0.788209490364     1.580448059860
C     -2.876097923393    -0.131395526707     2.556668270130
O     -1.732874583404    -0.448385249563     2.964078634965
C     -3.569299516541     1.031026510917     3.149936540650
H     -4.521981386908     0.671398536569     3.574133544594
H     -2.929021589005     1.457289417487     3.941595556847
H     -3.751510523131     1.772911484178     2.353547757490
N      1.935709048462     0.080550741558    -1.702205467673
C      2.806920909533     1.048119454586    -2.125401248611
C      4.081964819227     0.699388788999    -2.518445443393
C      4.490578313416    -0.616581349425    -2.485071373189
C      3.601245501084    -1.565388230764    -2.053312745493
C      2.307358964295    -1.177506907953    -1.647063426645
H      2.491739708739     2.085460686578    -2.150179838419
H      4.762387988820     1.466519664237    -2.850093671245
H      5.495657713890    -0.895180665952    -2.790612020688
H      3.862940528573    -2.603234624113    -1.989504927137
O      1.552668419893    -2.175540729232    -1.243646853209
H      0.580097298732    -2.053927522027    -0.887799938005

