# STO-3G

title

0 1
C     -0.227295834837     3.428840214868     0.512869348232
C     -0.077030984404     3.225609241114    -0.880059043046
C      0.441378393934     4.240218160302    -1.707546760698
C      0.818229149083     5.480212491817    -1.156041779011
C      0.663792825130     5.698220214114     0.227167579742
C      0.143019390510     4.681760583579     1.050890990717
H     -3.853864001628    -0.178699627542     0.178854652852
H     -0.393710315157     2.279296871413    -1.316440100937
H      0.538416431880     4.069390874995    -2.777686523273
H      1.215671866822     6.266894391757    -1.793308377495
H      0.942246043757     6.656781815295     0.660051593640
H      0.021740491528     4.863662415020     2.117572017409
C     -0.736448405781     2.310527122851     1.402993545364
H     -1.232160317036     2.710514243551     2.299807890066
H     -1.491815683578     1.718682621024     0.872419272669
C      0.336642624831     1.297078584846     1.835927902049
H     -0.116036493771     0.537921896478     2.473145322347
C      1.622923742613     1.787303605878     2.379915039073
O      1.955613690221     1.436450378159     3.540065333911
O      2.603214269240     2.115615424307     1.429112683464
C      3.880593116755     2.498466905012     1.957987508017
H      4.562530260071     2.762615532063     1.120998220896
H      3.783956560081     3.389653138444     2.619086707577
H      4.342536119451     1.661387008416     2.530257711250
Pd     1.063303038739     0.389959326735     0.145194815907
C     -1.158541465683    -1.462761059085     0.486513215145
O     -0.263494189736    -2.349170694392     0.700490296013
O     -0.931490431423    -0.285637209959    -0.027731393364
C     -2.619128724340    -1.766538268230     0.902013212320
H     -2.552443307448    -2.240167365959     1.887443580263
C     -3.305670435058    -2.718067107578    -0.053854010570
H     -4.327387687500    -2.940293977060     0.317903625463
H     -3.383420716773    -2.247033037104    -1.054764964451
H     -2.732911320209    -3.665584119868    -0.130665330943
N     -3.426899751404    -0.558890601442     1.014126930052
C     -3.318740931036     0.229209753809     2.119550684495
O     -2.545758061465     0.003537305019     3.078896101995
C     -4.206685057173     1.410546629635     2.150394241417
H     -5.246459396584     1.047198060288     2.090134985021
H     -4.040171033398     1.951423665010     3.098037427079
H     -3.969167203247     2.053093819731     1.285350681850
N      2.121215763232    -0.533718285969    -1.492488744101
C      2.718493127045     0.259431444111    -2.435274904216
C      3.576985901833    -0.294109098332    -3.362240044513
C      3.837405065853    -1.646968042332    -3.354398574953
C      3.217913768003    -2.422059176910    -2.410141256807
C      2.338995236975    -1.821953930814    -1.482082318382
H      2.524298278722     1.326166340880    -2.442906164969
H      4.046758776875     0.339734577894    -4.096668476468
H      4.513407415003    -2.088888374003    -4.081764273926
H      3.369051454077    -3.482172964205    -2.355608691424
O      1.791513305607    -2.672809679253    -0.645636249964
H      0.974256856470    -2.412886708696    -0.027004501985

