# STO-3G

title

0 1
C      1.221728709198     2.660442092878     0.725075613293
C      2.183801069266     3.355379947251    -0.042635972436
C      2.775631511106     4.536355918891     0.440589127275
C      2.411166572713     5.043265023379     1.703608946301
C      1.456714878946     4.356867190075     2.478876125135
C      0.867356531011     3.175321044063     1.991679932725
H      0.875860012974    -1.767318864433     1.533820406963
H      2.480362267424     2.961433395281    -1.014755565566
H      3.520672725017     5.054674498214    -0.159029592928
H      2.869541012029     5.954597647241     2.080263713654
H      1.177333234109     4.736474023834     3.458958936126
H      0.134934295093     2.647565435099     2.600678670556
C      0.554622770044     1.406463083796     0.172996088532
H      1.275351218922     0.831612317872    -0.416263692706
H      0.230352867374     0.759677932580     0.990714088070
C     -0.624269760714     1.820841744333    -0.735391321245
H     -0.269047627078     2.449588058333    -1.545909224548
C     -1.864180399958     2.370509579882    -0.152180978231
O     -2.764687003251     2.712330454938    -0.962817240301
O     -2.155109424145     2.143732008832     1.203464912411
C     -3.453729106802     2.557936829469     1.647994672705
H     -3.555732716507     2.341869987153     2.733604923829
H     -3.594540781854     3.652059168956     1.496398524283
H     -4.252652778542     1.999592215508     1.109238966525
Pd    -1.441507820356     0.257031892270    -1.852121064458
C     -1.138456179520    -1.329676380551     0.406839428686
O     -0.036025761321    -1.556485740554    -0.231497686850
O     -2.156688081901    -0.691001474490    -0.096103245228
C     -1.178068490700    -1.791064795058     1.881486439131
H     -1.716407517741    -2.748653403359     1.947771329241
C     -1.866115705042    -0.791579915228     2.792166149061
H     -1.945358277643    -1.206733577664     3.817590424327
H     -1.272673162067     0.143271580287     2.837331324522
H     -2.887999855044    -0.567449039397     2.424050323386
N      0.219320761136    -1.942306364071     2.293911610140
C      0.597096377601    -2.570128989122     3.434549585705
O     -0.183168890525    -3.009761376968     4.311806962917
C      2.057966233530    -2.705487468782     3.615414975136
H      2.249058335675    -3.217085831281     4.574659878938
H      2.447294447083    -3.298894657117     2.771785827911
H      2.497324196083    -1.693033380368     3.618044600163
N     -0.095220463917     0.621026732317    -3.359649143381
C     -0.298878748523     1.440631744580    -4.437446666390
C      0.680874363815     1.570363619479    -5.398206276060
C      1.868416229021     0.880341628898    -5.286760664779
C      2.047473288417     0.065157827504    -4.200187218573
C      1.025539842495    -0.047719931638    -3.234944905524
H     -1.228967915290     1.989712264763    -4.530516563432
H      0.514519630501     2.219781569891    -6.242827967334
H      2.644443541787     0.981169417283    -6.041245884914
H      2.950235308420    -0.495485843505    -4.053542055124
O      1.323815821362    -0.846977652502    -2.235093613868
H      0.643187301747    -1.082357119853    -1.468158152196

