# STO-3G

title

0 1
C      1.933652515743     3.056098769156     1.345205090570
C      2.775070746096     3.960084726392     0.657292075366
C      3.326623073873     5.074331588459     1.315743118766
C      3.040849377084     5.303066790593     2.676522302456
C      2.209263271261     4.403666905862     3.371413680193
C      1.660162662680     3.287203173481     2.711898406592
H     -2.018990946664    -1.422195734825     1.914547628117
H      3.013248399648     3.785141391137    -0.391683093523
H      3.978824232888     5.756929307081     0.774675607886
H      3.467281110780     6.163202277856     3.188103935579
H      1.996415989349     4.564090727672     4.426236925154
H      1.037114104855     2.578212521510     3.253008288753
C      1.304284357208     1.864941932933     0.628301098357
H      2.068342708805     1.310328223116     0.068188356897
H      0.891373858222     1.181420378759     1.372690286428
C      0.222874777936     2.322748561426    -0.361940432600
H      0.648006693358     2.974043550066    -1.146097348965
C     -1.060747703325     2.877914496264     0.113856093122
O     -1.847938611172     3.323622678874    -0.762400368795
O     -1.467872256959     2.719367157342     1.448458359941
C     -2.693625312743     3.372027340755     1.806900540435
H     -2.888756368141     3.219162159948     2.889822773903
H     -2.626023662275     4.468446329460     1.623897944079
H     -3.549595350234     2.949204327195     1.233863872840
Pd    -0.186976094233     0.897825160181    -1.776332446113
C      0.251096413544    -1.155749635174     0.209120523701
O      1.364272199637    -1.328202151566    -0.394073680778
O     -0.709008004659    -0.367504727794    -0.194127407625
C      0.015055475537    -1.881535090865     1.553376702755
H      0.934339009996    -1.763014504296     2.135732747096
C     -0.267830775606    -3.356960055680     1.373267006506
H     -0.379946216140    -3.833167421814     2.369337700462
H     -1.212789582338    -3.487381828457     0.807949071526
H      0.566514373897    -3.845306925756     0.828443765302
N     -1.089131944731    -1.287543025785     2.292560694223
C     -0.867792456115    -0.240375530579     3.132937911715
O      0.262188520722     0.240454381781     3.390906392984
C     -2.069696002571     0.312913116683     3.787850746821
H     -2.526969036574    -0.493861883781     4.384036135777
H     -1.758773736682     1.153466235927     4.431584727515
H     -2.757847650032     0.658056706358     2.998565177785
N     -0.152385604715    -0.376716493133    -3.534418351923
C     -1.086599694978    -0.265769429227    -4.529951600791
C     -0.861305368795    -0.850680116820    -5.758820081585
C      0.295358978988    -1.560976430102    -5.995579739095
C      1.204539333382    -1.678449098350    -4.977811750297
C      0.933336044459    -1.078498931279    -3.729449064006
H     -1.994640284315     0.300339209617    -4.356583464271
H     -1.598751243952    -0.749452538888    -6.538808706635
H      0.477940903964    -2.023306588244    -6.962242310340
H      2.115900581294    -2.232429881860    -5.089833241433
O      1.861011689569    -1.290210634697    -2.820376068133
H      1.634072270232    -1.173470963398    -1.796328785816

