# STO-3G

title

0 1
C      1.547571770962     2.207006766000     0.991539115594
C      1.777386886689     3.572362645339     0.702112079395
C      2.261801871058     4.449118510339     1.689998834014
C      2.531009740480     3.971342986201     2.987773758716
C      2.325324106021     2.609427069485     3.280476619094
C      1.839890793153     1.734636284156     2.290121473839
H     -1.853194105227    -1.357895233609     2.555903050989
H      1.600009670992     3.949242757497    -0.304810766969
H      2.440187479561     5.494270758137     1.446202611525
H      2.910700114567     4.645875010314     3.751947406732
H      2.552886032904     2.218905751506     4.269516710621
H      1.718713902791     0.682662560105     2.533691670651
C      0.990592442986     1.265141109503    -0.073827466914
H      1.366982526268     1.551889002728    -1.061117831954
H      1.333478646907     0.244357501893     0.119023931358
C     -0.553431932658     1.268687969581    -0.058768372977
H     -0.943306539353     0.837781236837     0.862229969542
C     -1.309328894528     2.481234126523    -0.432740395899
O     -2.560664120208     2.425538182865    -0.317055052234
O     -0.721737621382     3.419797687519    -1.297737507552
C     -1.510984802735     4.581826851735    -1.587469799001
H     -0.935950365400     5.258329638935    -2.256198660696
H     -2.457533291520     4.304823382350    -2.104342533497
H     -1.748214364893     5.140104327632    -0.653289017957
Pd    -1.365406241514    -0.137210917774    -1.368150235987
C     -0.484933138380    -2.037919998295     0.478229163774
O      0.489504390310    -2.074212634101    -0.347477393729
O     -1.635800713811    -1.428410790720     0.265530064977
C     -0.321124621546    -2.621509201045     1.896562975746
H      0.743191315886    -2.720351283037     2.121142457483
C     -1.008281238786    -3.957423878461     2.069628518233
H     -0.837131424071    -4.324825050366     3.102660443558
H     -2.099884557079    -3.834779848625     1.913727635258
H     -0.602861014368    -4.694878010373     1.347001603825
N     -0.924730985489    -1.666151480160     2.828326934405
C     -0.166226020365    -0.962823651364     3.709119201623
O      1.072757422849    -1.104543361135     3.857014677092
C     -0.867117874712     0.051929806958     4.526158933165
H     -0.678918733545    -0.191071217970     5.584953901072
H     -0.432647074711     1.034216963561     4.275531911642
H     -1.951778326587     0.043764633928     4.320804071072
N     -0.375880238004     0.617888943989    -3.000278639539
C     -0.826482748694     1.601962102321    -3.839270296475
C     -0.083277412262     1.961294575914    -4.943452183439
C      1.120051897511     1.345770005300    -5.208799981734
C      1.552507350500     0.367036724813    -4.353493110282
C      0.767497165963     0.019397481873    -3.234667670543
H     -1.771369974731     2.092921624669    -3.637219831896
H     -0.445544183030     2.737172018484    -5.597995949401
H      1.712756086290     1.630666667066    -6.074258022009
H      2.483956895504    -0.143990835280    -4.501486148269
O      1.305873475968    -0.917165210144    -2.486581520635
H      0.848106162915    -1.312263708485    -1.638183976206

