# STO-3G

title

0 1
C      1.317787155977     2.195873585135     1.320774406691
C      2.684321349677     2.244295110328     0.965208803866
C      3.530091151800     3.239615048998     1.487880449482
C      3.020853512223     4.206043572037     2.377144915958
C      1.661509954987     4.164938910263     2.743631715173
C      0.818778294994     3.168164368566     2.218156761864
H     -1.160486086098    -0.991263109321     2.898661123783
H      3.089527733154     1.488340414460     0.294200441050
H      4.581905358886     3.255212402650     1.211073874629
H      3.675159797636     4.973396634986     2.784453035760
H      1.263516142210     4.901702738058     3.438063169671
H     -0.229288775049     3.140326552288     2.515090742800
C      0.402312840336     1.137283310631     0.718683137489
H      0.982147318561     0.237360546002     0.490598249511
H     -0.383501051923     0.849271295291     1.420521116005
C     -0.223054000415     1.666517034800    -0.586299352751
H      0.544106408668     1.850643795159    -1.335310539353
C     -1.192907332846     2.781448208674    -0.535883857411
O     -1.493853221479     3.338330985693    -1.623750483529
O     -2.049045690187     2.879021515843     0.573307213974
C     -2.998616613290     3.953560835317     0.540814519936
H     -3.597917122211     3.941884934858     1.477047710360
H     -2.480552381683     4.937223835761     0.473231752412
H     -3.698497074688     3.841575270396    -0.318111838224
Pd    -1.363472889561     0.189456801777    -1.505909522091
C     -0.714431166645    -1.837421435870     0.300396371359
O      0.142686432327    -2.034523344184    -0.631109830100
O     -1.684824235781    -0.949118305796     0.249172891893
C     -0.536474386683    -2.583740615351     1.639985541087
H      0.377086245583    -3.179203391920     1.576234971046
C     -1.711685687444    -3.467841012812     1.993329565411
H     -1.505759767385    -3.982420519687     2.954692508057
H     -2.622458579807    -2.845558332895     2.111478595010
H     -1.873607294692    -4.226145981627     1.200350601436
N     -0.366930539689    -1.590635913843     2.702533948240
C      0.876036748261    -1.266229075514     3.165941888282
O      1.944468594158    -1.784030179798     2.773183555268
C      0.906206390316    -0.228345264629     4.217957152626
H      1.956941120028    -0.055553140138     4.510498768156
H      0.473820289443     0.695173839660     3.802310219149
H      0.315111355982    -0.590890060669     5.075828078932
N     -0.447842934245     0.652663011803    -3.278696940449
C     -0.868785031092     1.585470159459    -4.189422153512
C     -0.134967976033     1.807216962467    -5.335545069192
C      1.026214881378     1.105132166590    -5.572614560854
C      1.428115185252     0.180010913682    -4.645344162780
C      0.654435602919    -0.028061845562    -3.484696218893
H     -1.781566229746     2.142445028516    -4.012576855584
H     -0.471964181738     2.545295254002    -6.045402777620
H      1.610574118536     1.282588837128    -6.471779700399
H      2.326206266933    -0.393394279193    -4.768315455200
O      1.156558688961    -0.922908012527    -2.665782137535
H      0.642599085601    -1.287488719052    -1.824972410090

