# STO-3G

title

0 1
C      1.970144464205     2.482576940104     1.559385690218
C      2.221627111483     2.142993829849     2.908595159061
C      2.868421857763     3.057893859550     3.760626822591
C      3.270248782151     4.320778557385     3.282341261789
C      3.027201793821     4.662724220370     1.937938012445
C      2.382084891733     3.747671367722     1.084961190604
H     -1.815257062505    -2.289303988342     2.207890977242
H      1.922058739736     1.163468349440     3.274032976524
H      3.065051514472     2.782264571733     4.794844217969
H      3.772303096856     5.023503809238     3.943861701343
H      3.345169016947     5.630319074750     1.555156707507
H      2.204537304559     4.014836000469     0.042741355344
C      1.225898901784     1.508427332751     0.649610202964
H      1.524890839008     1.696975094637    -0.399430682684
H      1.507389606517     0.478545867261     0.881199315813
C     -0.309231298997     1.622075832023     0.779754410648
H     -0.719140236191     0.953666621612     1.528365320972
C     -0.953657913669     2.952695739238     0.808442799056
O     -2.059330304752     3.055932188976     1.398551363121
O     -0.623704473238     3.837789352637    -0.231036287523
C     -1.254637570396     5.124724487454    -0.170235210024
H     -0.899661933071     5.750254383934    -1.017638569460
H     -2.362043988636     5.031960041654    -0.247765989871
H     -0.992339710781     5.647994558469     0.777843573229
Pd    -0.843551634811     0.938850778214    -1.082122211422
C     -0.083807562886    -1.654658586828    -0.031295462506
O      0.918667707836    -1.572426340749    -0.819191410663
O     -1.140509642541    -0.888206457501    -0.064576995345
C     -0.040682161303    -2.692005644129     1.118280625011
H      1.009655051861    -2.794137554528     1.405232993100
C     -0.579710302261    -4.044319406449     0.706902759889
H     -0.494799155375    -4.748439949300     1.560422863589
H     -1.648745415866    -3.949378631390     0.427234879634
H     -0.001740255733    -4.441947037806    -0.152725521547
N     -0.807141524486    -2.215473313827     2.265609398781
C     -0.255005432214    -1.289724585651     3.095438578852
O      0.911484508731    -0.841809977381     2.971356515187
C     -1.092968640535    -0.792745310775     4.207923324366
H     -0.552955260483    -1.003656578695     5.145893017746
H     -1.215078389414     0.294753468078     4.073985597498
H     -2.075488828901    -1.296409097136     4.215041095634
N     -0.879609436859     0.557618497191    -3.215652127452
C     -1.856408678262     1.066996556937    -4.029321026146
C     -1.690263063590     1.061441553195    -5.398623194013
C     -0.548761098362     0.536493317891    -5.963784088132
C      0.405266201137     0.012989622941    -5.132344742974
C      0.195374623577     0.023180577288    -3.736379433378
H     -2.753073840947     1.492396977394    -3.593562124479
H     -2.461475303582     1.472846869171    -6.029636030445
H     -0.411989857488     0.530851102680    -7.042091585496
H      1.309196205118    -0.424983304618    -5.508058718491
O      1.165006318243    -0.535889119155    -3.048104602608
H      1.015064787274    -0.867143115725    -2.051758444148

