# STO-3G

title

0 1
C     -0.033663023368     3.955979062863    -1.609330827827
C      1.121325527439     4.762486734321    -1.725556970069
C      1.573413827601     5.199751786757    -2.984708188206
C      0.870787960409     4.839082052145    -4.151924634886
C     -0.288548833254     4.046438075982    -4.046403635019
C     -0.735884950280     3.610311482091    -2.784234754389
H     -1.145719515850    -2.139932729683     2.426146111865
H      1.661060910903     5.060808760623    -0.827128147872
H      2.457448119936     5.830375756874    -3.054576075228
H      1.211740665279     5.184180900324    -5.125468957392
H     -0.846902008100     3.776168708234    -4.940121571169
H     -1.637211408326     3.003798955922    -2.709089697996
C     -0.480167963404     3.447511115725    -0.249693813855
H     -0.483273323024     4.273783202072     0.481569937984
H     -1.508900572262     3.066496705737    -0.278581808626
C      0.448950035906     2.335965839707     0.271680791853
H      1.498770293287     2.529880132446     0.070732319175
C      0.304910445327     1.858273775272     1.664387724243
O     -0.758061893210     2.088472265652     2.297119689576
O      1.377784764896     1.173144243344     2.251550774319
C      1.107449379479     0.560117708344     3.520488228012
H      2.017300727623     0.028626247822     3.873356121294
H      0.830031323948     1.323778586855     4.281773337718
H      0.287662332724    -0.190404803695     3.432436939995
Pd     0.046356840912     0.814793454528    -1.080574666917
C     -1.550061162391    -0.557228988582     0.716089051680
O     -0.382107991878    -1.069981317200     0.922985348240
O     -1.797450162028     0.357882603056    -0.182972355475
C     -2.706396407776    -1.049002389902     1.600492129841
H     -3.503472015146    -1.453920057230     0.963477212035
C     -3.296656176696     0.057376278337     2.451866365566
H     -4.177575441214    -0.327677200284     3.005921336013
H     -2.540892517782     0.401313218376     3.186917940185
H     -3.614108241763     0.910383988858     1.817685425654
N     -2.162052519181    -2.082334446190     2.476084186334
C     -2.959235516556    -3.022169493982     3.036835050090
O     -4.210421221384    -3.045462725560     2.929507524360
C     -2.288175246567    -4.073711835761     3.832006650085
H     -2.699288033833    -4.025854266691     4.853684232875
H     -2.530184689345    -5.041958652389     3.364827836681
H     -1.195857448583    -3.913932914638     3.848611074234
N      2.035265378822     0.665714355854    -1.509968615132
C      2.716101072224     1.422468301190    -2.425669474187
C      4.069260401494     1.227214268018    -2.604461669962
C      4.743450123073     0.273098157834    -1.872517613303
C      4.036840065025    -0.471080412344    -0.963594849767
C      2.655620774526    -0.242039242791    -0.798673405746
H      2.190691366393     2.171284623199    -3.007079548314
H      4.600179388409     1.827532497769    -3.325490275830
H      5.809862999006     0.115581704471    -2.011653201433
H      4.503141981653    -1.224801826199    -0.359824437406
O      2.088331814380    -1.008839994651     0.109760756982
H      1.083288757070    -0.922379915868     0.343741235396

