# STO-3G

title

0 1
C      1.722301050090     3.008940768945     1.421469853828
C      1.809666952128     4.354937158958     1.001167022782
C      2.327886526413     5.346104721023     1.857339864946
C      2.771788642522     5.007675548966     3.149151222848
C      2.694478428351     3.667502986309     3.575908887103
C      2.173667122823     2.679324868247     2.721100465186
H     -1.556160804834    -0.163203442974     1.929461151688
H      1.478286207805     4.641939864268     0.005972810660
H      2.386394888351     6.377500252084     1.515561181229
H      3.172690167073     5.772662795167     3.810169697954
H      3.037852303701     3.389429168894     4.569771388998
H      2.125733751985     1.647272362390     3.064259626035
C      1.194399767745     1.892842523739     0.515353134023
H      2.045185560679     1.419825381296     0.001889075256
H      0.764220632134     1.113885210590     1.151801395374
C      0.176914802751     2.319128120215    -0.546419101239
H      0.618159256796     2.986849085712    -1.303143011457
C     -1.172251190099     2.785711273424    -0.166867651050
O     -1.920527879573     3.184384287473    -1.097787895333
O     -1.662978973333     2.576205405754     1.130708582805
C     -3.037129173821     2.919733304966     1.350781736321
H     -3.300717134509     2.710376305393     2.409996785332
H     -3.211889042384     4.001721761559     1.155036180499
H     -3.705186850056     2.308131237463     0.703084969962
Pd    -0.108405803554     0.851405559393    -1.954907360315
C      0.098953516811    -1.170779572457     0.103369203171
O      1.205353951948    -1.460974264603    -0.454867626955
O     -0.786397717063    -0.323477316830    -0.369373996342
C     -0.236268959669    -1.751737327297     1.493598301756
H      0.689650405144    -2.115020366009     1.945954726916
C     -1.250125209637    -2.872099415584     1.430087209562
H     -1.424315487683    -3.265597612937     2.452924346807
H     -2.208591215362    -2.479609865615     1.032753280245
H     -0.878215065866    -3.691434182603     0.781352727642
N     -0.780210556366    -0.682396462406     2.327631490994
C     -0.079193890953    -0.188042337340     3.385873753148
O      1.034517093577    -0.615203505071     3.770796363508
C     -0.716749550621     0.937484887386     4.098614169567
H     -0.080481800421     1.219441340994     4.955285438262
H     -0.796285372192     1.779983934358     3.392237151887
H     -1.713186050419     0.610201706996     4.439642601084
N     -0.011909370296    -0.462897352264    -3.671548463334
C     -0.885247841737    -0.332278980297    -4.718811978449
C     -0.613639077359    -0.940976323226    -5.926555810236
C      0.527865534436    -1.695171148350    -6.090480986108
C      1.373570242946    -1.832792775591    -5.021818734802
C      1.054690721194    -1.208517023842    -3.797198597815
H     -1.779612378775     0.269264638227    -4.603270751106
H     -1.302198186948    -0.823429437497    -6.747881822966
H      0.747019970968    -2.176190584207    -7.040289983265
H      2.268097752900    -2.421943739677    -5.075705165589
O      1.917483330818    -1.444270488071    -2.832275201259
H      1.616212709651    -1.320080883850    -1.833279873216

