# STO-3G

title

0 1
C     -0.109075771247     3.681347474746     0.063268380590
C      0.554169909583     3.454970372510    -1.166600847594
C      1.315379891295     4.468325451459    -1.778273263835
C      1.423148442099     5.734229529597    -1.170215102277
C      0.758711046696     5.976045438609     0.047981569883
C     -0.000949106503     4.958115173507     0.656713512677
H     -3.058227472053     0.715374257967     0.462516457842
H      0.444333904781     2.487782965520    -1.660256567192
H      1.810860363646     4.278140421158    -2.727843138662
H      2.006786374744     6.521606377438    -1.641460672982
H      0.828485740800     6.954002791870     0.519419495662
H     -0.515551330749     5.156920943236     1.594907700173
C     -0.878370651735     2.565679305683     0.741771756694
H     -1.586917804399     2.949371568117     1.488955749749
H     -1.497591024128     2.036355727951     0.002222331825
C     -0.002618430842     1.488868769713     1.402645273534
H     -0.626742012163     0.797458160610     1.967274780629
C      1.195185402851     1.884410314504     2.175555953049
O      1.310542285505     1.441243457236     3.346919351921
O      2.343358271832     2.160504412579     1.415951995371
C      3.517538074275     2.498935471614     2.167010622050
H      4.348748051686     2.730696560185     1.466574636208
H      3.337270542086     3.399786188540     2.796862900749
H      3.836180264727     1.650475688811     2.814922792679
Pd     0.913052297832     0.420032253683    -0.090722150983
C     -1.424477145840    -1.328672747433     0.209699196945
O     -0.632707279466    -2.258303254713     0.577343401977
O     -1.064885833732    -0.249729675193    -0.437170655458
C     -2.917564603926    -1.365441145448     0.634939322618
H     -3.022558964293    -2.137914449458     1.401072414937
C     -3.843761117685    -1.692723272435    -0.514714368777
H     -4.890948344547    -1.714581659713    -0.148551709687
H     -3.759788328416    -0.906493587909    -1.293989926672
H     -3.585320239963    -2.679841344192    -0.950269325458
N     -3.257332394660    -0.028177567503     1.129737237204
C     -3.378316716910     0.430800772216     2.407976970019
O     -3.343584061201     1.653263254432     2.691289765514
C     -3.581410728884    -0.564171869060     3.482834179890
H     -4.474571643240    -1.160743561434     3.232352797631
H     -2.675296507109    -1.186237055482     3.559996839394
H     -3.743876444602    -0.023644196177     4.433515007256
N      2.130182749314    -0.699179115260    -1.476811679489
C      2.895156716593    -0.026808030280    -2.392366807261
C      3.823309729863    -0.706651944396    -3.152797578461
C      3.987710635723    -2.066157450583    -3.005286868638
C      3.203167434912    -2.719217281300    -2.092198974573
C      2.257403887469    -1.991753971582    -1.336991161789
H      2.777748676490     1.044651746009    -2.509174536785
H      4.424026552588    -0.166753867047    -3.866755979080
H      4.718050057365    -2.607526486026    -3.601045379241
H      3.274796066517    -3.777553295819    -1.935614141778
O      1.557151049838    -2.739524070976    -0.515147835355
H      0.690355439257    -2.405886823710    -0.024740866390

