# STO-3G

title

0 1
C      1.903796446972     2.127506097392     0.631910393120
C      2.483911143323     1.546517893034     1.781416146092
C      3.173317156090     2.345790655511     2.713841446361
C      3.292802139210     3.734507467238     2.514110000741
C      2.724817227709     4.321651170493     1.365841584276
C      2.038232935438     3.522415367424     0.434312281900
H     -1.685922364862    -1.246453178966     2.573867057457
H      2.410227096885     0.475045412582     1.951516275070
H      3.621821673056     1.879094309965     3.587876472379
H      3.829484752239     4.348338700701     3.234114541133
H      2.825476399330     5.391242211963     1.193612550197
H      1.614523436187     3.982041616487    -0.459452246470
C      1.115950846344     1.289112993822    -0.371241148289
H      1.255249066384     1.694143661845    -1.377216435406
H      1.478598755231     0.256326676393    -0.378224160301
C     -0.383899180824     1.271913036584     0.004585434313
H     -0.541705516502     0.649313861131     0.882082121978
C     -1.115921393489     2.548334229460     0.136354688302
O     -1.176616300483     3.307120334429    -0.866475870583
O     -2.057386449591     2.658495064258     1.171848478229
C     -2.768403565550     3.902435272675     1.241130660046
H     -3.460662455972     3.881903397247     2.110685762836
H     -2.063337349155     4.753571791912     1.380026187597
H     -3.373985563704     4.067573180974     0.321305372553
Pd    -1.511445144183     0.233016980939    -1.403768433985
C     -0.830287267620    -1.979070330700     0.132781132693
O      0.038661918154    -2.088433726700    -0.797053880433
O     -1.881953930134    -1.181314479963     0.099835713300
C     -0.600085953963    -2.691706140959     1.484004282605
H      0.426845975574    -3.062018239313     1.511247513427
C     -1.568896724539    -3.824311100300     1.737405737661
H     -1.338904964347    -4.289048763552     2.718460936872
H     -2.604657817320    -3.427945490587     1.766419422448
H     -1.480406082835    -4.590143693915     0.939946392559
N     -0.772618611998    -1.686906815656     2.535578252891
C      0.299874850594    -1.087769442721     3.118893232264
O      1.498190517376    -1.380667400059     2.893026624889
C     -0.022014879512    -0.000044819817     4.065997203255
H      0.921642082923     0.404458064934     4.472648559651
H     -0.566506339969     0.784219056943     3.514166764875
H     -0.646470327639    -0.420823400946     4.872511908732
N     -0.554368503792     0.978786370711    -3.065188356743
C     -0.883376271375     2.123945204826    -3.741063930685
C     -0.187008060005     2.476487480059    -4.878056154647
C      0.848487955578     1.693455631453    -5.337788186470
C      1.163511205561     0.556980995954    -4.640734119292
C      0.432223587261     0.222823604998    -3.482065966350
H     -1.700122007306     2.744342213387    -3.391378606091
H     -0.452668924246     3.379911075554    -5.402663676239
H      1.404567427667     1.972448730487    -6.229048966033
H      1.966870024472    -0.087349484784    -4.940450941643
O      0.857012244804    -0.870356103284    -2.890420198864
H      0.416003908440    -1.272266460793    -2.034940294437

