# STO-3G

title

0 1
C      1.088754167820     2.624147105195     1.315585644965
C      2.464093749717     2.658217619025     0.996941820718
C      3.261350274338     3.753187304146     1.375841591577
C      2.696080595418     4.830423547513     2.086015071015
C      1.329075611060     4.799072654096     2.423742331297
C      0.533468861363     3.703657031563     2.040392656067
H      0.296212893633    -0.284712747674     2.934679670363
H      2.915147782115     1.812277200317     0.482605532654
H      4.321659360486     3.758043388181     1.133352094772
H      3.314556824666     5.674131814018     2.383854638873
H      0.889015151655     5.618258936449     2.988255701828
H     -0.519688651521     3.681964038024     2.319413320434
C      0.217513302815     1.461181051745     0.855233649015
H      0.836300697483     0.564973248617     0.749659418071
H     -0.571174508704     1.251915183696     1.584488775878
C     -0.405401637031     1.785798046679    -0.515805750863
H      0.366918417608     1.852835303475    -1.278698462551
C     -1.378193039766     2.891474096096    -0.639951865375
O     -1.645192743435     3.297610353257    -1.801157469088
O     -2.290607095100     3.097922639141     0.407465104918
C     -3.222438155051     4.172507348289     0.222653290330
H     -3.868598223462     4.256539127391     1.123260471654
H     -2.687681222867     5.140460339990     0.089386851329
H     -3.878663817287     3.985311190868    -0.657301954344
Pd    -1.552088788620     0.188408517236    -1.199760503878
C     -1.038583330804    -1.573764394108     0.904653298953
O     -0.239801277534    -2.003738371951    -0.010829351173
O     -1.949072749212    -0.653142828190     0.722105231485
C     -0.713117632407    -2.055091502630     2.347212046207
H     -0.481606397676    -3.123843065371     2.309954761172
C     -1.818350517050    -1.822109737736     3.352141355977
H     -1.489966354373    -2.182488204718     4.348941492427
H     -2.036084023245    -0.736172022690     3.425063230683
H     -2.736250175453    -2.364525262867     3.047172740734
N      0.462516017306    -1.274142583807     2.759226089830
C      1.774911386888    -1.507687603030     2.439553435008
O      2.629480173831    -0.591905659151     2.407251345739
C      2.187988967830    -2.903138148043     2.179289627057
H      1.703755676087    -3.247117981022     1.251327878072
H      3.284782051255    -2.914258209978     2.050152979886
H      1.903487796680    -3.517738755011     3.050101238242
N     -0.573411522990     0.324584771240    -2.994233697419
C     -0.920155200056     1.139454019864    -4.039752975158
C     -0.153822561414     1.150888874759    -5.185941245628
C      0.966495226733     0.356288833634    -5.289487594265
C      1.292428569381    -0.449920769253    -4.230752930719
C      0.486883133041    -0.443222584483    -3.073193734653
H     -1.800106820953     1.767973964549    -3.969008562845
H     -0.431193674381     1.798905649080    -6.001689809577
H      1.577957027252     0.370131829363    -6.188032496073
H      2.156843329819    -1.084526683903    -4.246479916065
O      0.916428081869    -1.241825479065    -2.123527755782
H      0.354990887311    -1.452997717505    -1.262539173784

