# STO-3G

title

0 1
C      1.673293798463     2.402783590968     0.592807348425
C      2.559120212758     2.956597113540    -0.360438796378
C      3.367496037565     4.060529005074    -0.036205019464
C      3.298278242931     4.629603830308     1.251328603605
C      2.424757489170     4.078823229401     2.208593945066
C      1.616604460373     2.972227926302     1.884253162468
H     -1.456508274612    -0.034259955585     2.544263696677
H      2.628297292267     2.510885870789    -1.353363350070
H      4.051144982114     4.470126104017    -0.776896463705
H      3.923475250655     5.482403838016     1.506285061104
H      2.377493080813     4.500876763545     3.209810202201
H      0.965489451699     2.534423884442     2.638216942456
C      0.767616307333     1.236737717552     0.208567105498
H      1.324669280471     0.512272508002    -0.394321427415
H      0.417288597291     0.715997402406     1.101326721342
C     -0.409002688260     1.778236813154    -0.627439756111
H     -0.039613900711     2.319574995072    -1.492168312098
C     -1.518589862450     2.515065081611     0.008787301750
O     -2.451163015318     2.892435472092    -0.749882361500
O     -1.687486705864     2.462131738765     1.398715334547
C     -2.879907776178     3.058325171656     1.922013854323
H     -2.877381920760     2.953721130839     3.029051875399
H     -2.922732896513     4.142273706024     1.673604473962
H     -3.784483301784     2.542843435689     1.528742099288
Pd    -1.482511136117     0.271663720272    -1.579870922969
C     -1.093143826983    -1.535855330641     0.523466946964
O     -0.167039103615    -1.922038325901    -0.272365847122
O     -2.002126024207    -0.626866976216     0.248694199393
C     -1.069483137070    -2.019378325585     1.992824724991
H     -0.263489740453    -2.749450579679     2.095850570448
C     -2.372437188290    -2.638486657535     2.446158898321
H     -2.276558649781    -2.962457787385     3.502841268127
H     -3.182504915462    -1.881533784439     2.383680063941
H     -2.626026638646    -3.512944986296     1.812913986378
N     -0.833662878191    -0.805392058859     2.784788111357
C      0.219820367122    -0.439332617337     3.563015413056
O      0.380256505604     0.732291940128     3.984007936418
C      1.205462098360    -1.481113327841     3.922772391473
H      1.716160722227    -1.808093185590     3.002479654374
H      1.939932278743    -1.030287640593     4.613984263386
H      0.673364597291    -2.308384709921     4.422296126801
N     -0.342254052214     0.529796700280    -3.266652519781
C     -0.595265523662     1.408729164783    -4.285687724083
C      0.268712379974     1.486440678818    -5.356926590687
C      1.388385519585     0.685471286228    -5.414783243350
C      1.616993820667    -0.188670622049    -4.384513481798
C      0.713164572523    -0.245972184033    -3.303521399969
H     -1.471074386557     2.046408401328    -4.244307472204
H      0.065767529306     2.184647627940    -6.153277803073
H      2.074055589592     0.746463658753    -6.256066126031
H      2.472870493120    -0.834981441937    -4.368741214693
O      1.054177934413    -1.112456022135    -2.374115918678
H      0.448144546565    -1.342378273133    -1.555767394915

