# STO-3G

title

0 1
C     -0.120122342987     3.541231156764    -0.226793131774
C      0.822759207394     4.436895871744     0.323389333826
C      1.480997173225     5.385774608788    -0.483477763900
C      1.192321597401     5.466830508459    -1.858940480722
C      0.234487777455     4.596388678081    -2.416528677275
C     -0.414406383131     3.646962445680    -1.606275849090
H     -3.335172237046     0.495236015927     1.242423583141
H      1.047050180191     4.391198376127     1.388269632375
H      2.204631683941     6.064152660663    -0.036659407445
H      1.691184313251     6.206058521395    -2.481644104461
H     -0.015042401787     4.666204705909    -3.473311231603
H     -1.167305387522     2.991753148554    -2.043548857527
C     -0.812592511046     2.493010861068     0.629693082540
H     -0.920493153352     2.840251778801     1.668737461244
H     -1.833809909457     2.329553818920     0.263041398487
C     -0.149216722585     1.103875283353     0.687817783047
H     -0.839845790099     0.387253077113     1.118185203854
C      1.175482583755     0.901290967083     1.316685320176
O      1.455842627495    -0.252397241248     1.737967197607
O      2.141542059203     1.921418586368     1.298561305952
C      3.427112039464     1.579643080446     1.833682527295
H      4.098928936478     2.461645158505     1.764254286203
H      3.344203376485     1.286840796832     2.904824551063
H      3.886648945833     0.746260320998     1.254934342952
Pd    -0.234667962301     0.423493172696    -1.272113551887
C     -2.136804254668    -1.324854715215    -0.241990982686
O     -1.142824162397    -2.124154390726    -0.301621745138
O     -2.220945145758    -0.168349295434    -0.872800399530
C     -3.250876720373    -1.561583757840     0.814669984779
H     -3.041807038444    -2.499150865751     1.335712721978
C     -4.642450810560    -1.619756246680     0.227397963333
H     -5.378676253254    -1.774261224671     1.043038243062
H     -4.875140823997    -0.659722045565    -0.279073494397
H     -4.718421979556    -2.453246393184    -0.500437106297
N     -3.176929170267    -0.395799361375     1.712248707904
C     -2.497137769215    -0.251370182957     2.887377034416
O     -2.185898366639     0.873701576656     3.351543142627
C     -2.127793362963    -1.476521784866     3.626924139379
H     -3.047416933529    -2.054971340738     3.815588477839
H     -1.396948677436    -2.040829497301     3.023628486530
H     -1.664036352186    -1.180133829181     4.585637276059
N      1.784853289601     0.235787163025    -1.450074598139
C      2.668317371712     1.239834440886    -1.745402089834
C      4.008748750783     0.949187400953    -1.893769728630
C      4.468348127446    -0.341234812328    -1.741077761327
C      3.564281611923    -1.323700274045    -1.430204471753
C      2.202292475979    -0.993674992282    -1.274625866783
H      2.312640137548     2.257028733760    -1.865529328346
H      4.697870994365     1.744270920508    -2.127429681538
H      5.523905569595    -0.572934124131    -1.856184247743
H      3.860680392825    -2.343155007323    -1.280382699739
O      1.435847729840    -2.018116263318    -0.954455878208
H      0.436370874969    -1.903667038623    -0.738838524019

