# STO-3G

title

0 1
C      0.429583978224     3.281584888074     0.348816717327
C      1.656731404246     3.997704949453     0.445082947722
C      2.181508828901     4.695903789707    -0.660343382419
C      1.498976114186     4.680694130812    -1.892558318687
C      0.301884117666     3.945488251896    -2.018779158558
C     -0.228522131649     3.253363602956    -0.915835404213
H     -4.227425142355    -0.893741947096     0.570946580654
H      2.163197693160     4.067882674073     1.406488978960
H      3.103682181304     5.261906203846    -0.549959292329
H      1.890032664155     5.238172543653    -2.741000212680
H     -0.224545663465     3.919196671995    -2.970145064661
H     -1.151265546438     2.688245813876    -1.009453709814
C     -0.266535434348     2.713659631357     1.606517005220
H     -0.191562142178     3.435254751072     2.429102032429
H     -1.326081740278     2.561225019140     1.385655398421
C      0.336939100861     1.339064475458     1.946741707209
H     -0.419972749651     0.590079709732     2.129567614506
C      1.454963956029     1.188153359651     2.904687633140
O      2.378877406596     2.041787957744     2.901332890700
O      1.640307338803    -0.066629753005     3.506017214547
C      2.781608767897    -0.190074355789     4.366605948871
H      2.808250604912    -1.214892022729     4.796504783364
H      3.726661370504    -0.027740829764     3.800143718243
H      2.723575022656     0.537000285713     5.208253507194
Pd     1.155310574089     0.954812533650     0.107023621529
C     -1.330073315103    -0.586125206573     0.131221900042
O     -1.800823891264     0.458741584206    -0.381406795213
O     -0.029156077364    -0.913409301512     0.135343245138
C     -2.241665410582    -1.573061902255     0.907361780845
H     -1.702111911001    -1.849752107000     1.818404427727
C     -2.554843773157    -2.826900301465     0.119928236905
H     -3.192675630662    -3.496783075044     0.732993539367
H     -3.105569390326    -2.556437583386    -0.804440759601
H     -1.618024309980    -3.357994060829    -0.147239244573
N     -3.496285893797    -0.921105559085     1.269768570933
C     -3.489238582049     0.015128842482     2.258788092242
O     -2.476130181176     0.313358220961     2.936994822273
C     -4.765035453129     0.707385769944     2.542744229818
H     -4.997775399985     0.548666737684     3.608616956359
H     -4.610236428248     1.778670420717     2.335739776622
H     -5.577528969354     0.305419101348     1.912370893320
N      2.081164814829     0.572085747787    -1.839466655024
C      2.939642490224     1.501676924993    -2.363145948246
C      3.510036472094     1.298325971661    -3.603732128551
C      3.220800042801     0.163605835513    -4.329395722783
C      2.364172827291    -0.754656516173    -3.782514276722
C      1.803987331713    -0.507770237826    -2.511201707873
H      3.188574359947     2.386320748757    -1.793391668018
H      4.184870025962     2.036929168994    -4.004241868657
H      3.663864134574    -0.000636654217    -5.308116388616
H      2.096216828765    -1.658921348556    -4.291751496743
O      0.991766516159    -1.459740511377    -2.086553130556
H      0.559458400551    -1.290478429533    -1.159318292923

