# STO-3G

title

0 1
C      1.815491932272     2.217543601661     0.909381361220
C      2.414458471531     3.306010793176     0.234154394758
C      3.097261716264     4.312835710299     0.941639830923
C      3.192121029198     4.244117434859     2.344866730415
C      2.604343877813     3.159871316876     3.025821567848
C      1.921057751771     2.152896761297     2.318327913639
H     -1.985597806502    -2.579173688644     3.130557983467
H      2.347086968031     3.361297293021    -0.852706424169
H      3.556949123645     5.138388869046     0.402170398666
H      3.722353572621     5.017313602525     2.896819464531
H      2.685451105361     3.093383000709     4.109076888294
H      1.482887544948     1.310863101953     2.845624184648
C      1.050630640688     1.155283353835     0.120065960857
H      1.371036503095     1.189242801674    -0.925252084601
H      1.275474924932     0.156622871426     0.502872319777
C     -0.473491453181     1.369842392735     0.232852197514
H     -0.859446216357     0.977462908565     1.171218287384
C     -1.077031902422     2.679654398996    -0.087802677701
O     -2.310657395612     2.802017456216     0.130357004956
O     -0.434522003813     3.534099522495    -0.999193413585
C     -1.039102014274     4.821737871224    -1.178228721560
H     -0.431693266785     5.413655540726    -1.896414719830
H     -2.069927638483     4.727820762103    -1.588033838400
H     -1.070441838325     5.378310985026    -0.213991881377
Pd    -1.538618779390     0.085831844069    -1.022554654739
C     -0.610480441452    -2.038866373713     0.538446018854
O      0.256061280357    -2.076055739457    -0.404510469207
O     -1.694138291114    -1.303192674398     0.550472739212
C     -0.342001014431    -2.880632757949     1.809698577572
H      0.739228704922    -2.847813324562     1.975682255510
C     -0.773768672451    -4.323297863373     1.659622944780
H     -0.526682098630    -4.879052835487     2.587900343779
H     -1.869750438399    -4.369255070997     1.496465291640
H     -0.248159737305    -4.793636211036     0.803010960778
N     -1.026342761896    -2.305273247889     2.963657985488
C     -0.583128698802    -1.120016107833     3.456334333841
O      0.425436465078    -0.515732959682     3.016678034018
C     -1.340271226961    -0.521470390093     4.576110573350
H     -0.634845279846    -0.378952714531     5.411574400248
H     -1.727748626331     0.450625643030     4.230296347694
H     -2.168349803302    -1.182121394063     4.887144391904
N     -0.710643247623     0.841989598087    -2.744766860770
C     -1.187500738429     1.892533766741    -3.482583087789
C     -0.570842059603     2.242658435887    -4.664991837442
C      0.534795728158     1.552337168035    -5.109599513227
C      0.996653908745     0.507359064711    -4.354024046640
C      0.340500996269     0.169506339279    -3.151656750184
H     -2.055064205342     2.443737579485    -3.138695408589
H     -0.953177197478     3.071508361822    -5.237875842103
H      1.029444618136     1.830419378788    -6.036609901851
H      1.856783299168    -0.064414820757    -4.642960863275
O      0.894032341113    -0.837680001552    -2.517240097122
H      0.519040520423    -1.255911313375    -1.626957869674

