# STO-3G

title

0 1
C     -1.094417962649     3.181298361718    -0.411372768956
C     -0.276192640428     4.193244707029     0.144588292405
C     -0.825214299039     5.194111654007     0.966239702097
C     -2.207312102091     5.212610057455     1.240585912304
C     -3.037011607802     4.227396346083     0.674259627808
C     -2.482120267591     3.222376902446    -0.142289115570
H     -2.445596820505     0.919125927680     0.854163550717
H      0.789065292934     4.219506457912    -0.078083055904
H     -0.179701675389     5.963795340088     1.383508997479
H     -2.629653349661     5.988988508290     1.873727307200
H     -4.108304608204     4.242113364461     0.860747538053
H     -3.137712251399     2.486029550449    -0.607389778541
C     -0.523373663735     2.080739033496    -1.302845882734
H     -1.351132475527     1.463518857434    -1.661770979211
H     -0.033850245403     2.521889010448    -2.179822752887
C      0.464471739894     1.145351264661    -0.566581388973
H      0.039339714667     0.720107110201     0.342025755136
C      1.849790737743     1.593534548444    -0.320074152617
O      2.449070864586     2.251089307753    -1.213280369173
O      2.533867835210     1.077418046660     0.791438542120
C      3.916245728339     1.440990527260     0.906088504234
H      4.342257310196     0.975255110827     1.821105302192
H      4.496868811601     1.072808636024     0.030195813679
H      4.030076898815     2.545319819580     0.991254904507
Pd     0.443484320667    -0.538651769324    -1.779825965012
C     -1.496549482099    -1.464737575283    -0.002974924307
O     -0.493083474645    -2.182826494101     0.334858903560
O     -1.565977764695    -0.764292541615    -1.118747135884
C     -2.603649147892    -1.204117638169     1.041797506219
H     -2.472122310001    -1.891289122998     1.880391338077
C     -4.008946706337    -1.295723063302     0.492017316749
H     -4.733233861559    -1.095663532040     1.308436261559
H     -4.148527748834    -0.532636392433    -0.300819810796
H     -4.192686158301    -2.307741216696     0.077787521597
N     -2.374127659734     0.162791709657     1.526518201246
C     -1.883305921252     0.397965177184     2.779458570956
O     -1.651930441187    -0.480584744397     3.637787980877
C     -1.632788177238     1.818878590391     3.098500287651
H     -2.585344411104     2.363329030083     2.990866405949
H     -1.257332341769     1.888124108794     4.133427860665
H     -0.886420872507     2.211130642017     2.386742778709
N      2.460150623240    -0.894551253051    -1.743285695443
C      3.393920286401    -0.361795985357    -2.592451533698
C      4.717938219067    -0.729099509920    -2.478655586633
C      5.116845969272    -1.627321000826    -1.513853803036
C      4.167606793686    -2.140389958128    -0.670434511033
C      2.819679830006    -1.746756683585    -0.809002046949
H      3.089821306511     0.348051911894    -3.353200715993
H      5.445190778938    -0.303004623234    -3.150925817743
H      6.160018498404    -1.917969322755    -1.420596002831
H      4.415050579837    -2.837076720034     0.106740351140
O      2.015902479925    -2.303604418828     0.062332300612
H      0.974028487534    -2.172452535318     0.076319627792

