# STO-3G

title

0 1
C     -0.463537632736     3.327844011143    -0.286705203582
C      0.323692013789     4.488523221716    -0.121477342457
C      0.430434292757     5.446593495640    -1.148229324771
C     -0.263508221916     5.265747364967    -2.359874934207
C     -1.066532003057     4.120978934629    -2.531714734765
C     -1.166344793514     3.164866156036    -1.504115340560
H     -4.217819503055    -0.012171865501     1.065180851602
H      0.863198212665     4.643283256905     0.812267403405
H      1.047267189593     6.330234966591    -0.998806426614
H     -0.186766693378     6.007434370700    -3.151656880556
H     -1.618125062650     3.977380327848    -3.458438555632
H     -1.802016748623     2.291231084848    -1.637898693149
C     -0.593306115902     2.283331319038     0.811430808566
H     -0.585568335536     2.765709559289     1.801463284815
H     -1.561639262027     1.787429168038     0.714943367942
C      0.454043813833     1.147250896916     0.847820474984
H      0.087415819067     0.332555807850     1.471181113867
C      1.870458517057     1.422360396039     1.183975617282
O      2.433104123537     2.464476683532     0.756613158191
O      2.606312824263     0.412513392622     1.826297632787
C      4.001277087909     0.678648502169     2.026399235064
H      4.469842613792    -0.188821205867     2.539122764548
H      4.519769629218     0.825736235862     1.052021573056
H      4.144715436182     1.580554565592     2.663370517535
Pd     0.262665925549     0.281464265624    -1.029906006254
C     -1.633132920472    -1.335140411265     0.250418954812
O     -0.618750268738    -2.113278186259     0.289971446155
O     -1.722877944505    -0.244328020154    -0.473685213343
C     -2.830299719214    -1.640106781145     1.185031487951
H     -2.413245765688    -2.158701680537     2.053865987272
C     -3.872051527062    -2.522597142220     0.532625830263
H     -4.683088750561    -2.733958418845     1.260057904188
H     -4.305184164658    -2.000205840004    -0.344721086489
H     -3.414770885601    -3.480422859591     0.209066960468
N     -3.476994547589    -0.407515982832     1.629992427429
C     -2.854959153905     0.384316036912     2.544978114448
O     -1.736790500015     0.135627266222     3.055659875628
C     -3.587418335850     1.607579048437     2.933772537389
H     -3.738823034619     2.222275979881     2.030585209739
H     -4.556188076565     1.293811494618     3.357128799304
H     -2.995063636821     2.158438515214     3.686168157325
N      2.259040242462    -0.063759175099    -1.282232687014
C      3.162143758197     0.804561716615    -1.835487272029
C      4.475029166590     0.415384014241    -2.000848328300
C      4.890362245330    -0.838550854812    -1.609405875299
C      3.970620137246    -1.683762874058    -1.045918218227
C      2.635279333311    -1.257113802996    -0.885141643005
H      2.841970319928     1.793694674897    -2.143910938122
H      5.179060059342     1.105426284107    -2.437068023910
H      5.924481173256    -1.147254588013    -1.737792813215
H      4.233383035426    -2.667288934568    -0.709469513569
O      1.856009971708    -2.150435775563    -0.321090071850
H      0.836956314990    -1.997230947949    -0.129530051393

