# STO-3G

title

0 1
C     -0.385140392493     2.997049206608     0.499282727971
C     -0.124279584929     3.390562550062     1.830499760914
C      0.018309336444     4.751168375375     2.161427010639
C     -0.100652127697     5.739474683773     1.165164473176
C     -0.371773616979     5.358309077536    -0.164093313731
C     -0.513031092946     3.997754798923    -0.492278028825
H     -3.681137415387     0.261390812830     0.086301246192
H     -0.058536016741     2.633657298001     2.609927866935
H      0.210718399392     5.037752219407     3.192845786208
H      0.006308734785     6.790922668121     1.422100393115
H     -0.478890590472     6.117208413890    -0.936317862111
H     -0.733480092405     3.711443081605    -1.520836522464
C     -0.511900814258     1.522612919888     0.138488863590
H     -0.838423898500     0.959303274517     1.015016717436
H     -1.262549982665     1.378234446779    -0.644260241952
C      0.841399385931     0.937393211226    -0.314239873015
H      1.480289278278     0.737621083678     0.544485757848
C      1.584124475880     1.621523396843    -1.387906655226
O      1.149253226433     1.474351298078    -2.560822989870
O      2.929709997816     1.953020642473    -1.164013376356
C      3.597795418676     2.613081219926    -2.247706521516
H      4.641676063384     2.846998634450    -1.945642243666
H      3.636089073167     1.962557154394    -3.150262074861
H      3.088460082659     3.570986374598    -2.500005632069
Pd     0.497266280425    -0.916402833401    -1.192574697725
C     -1.601435583850    -1.467077948312     0.593377958885
O     -0.592484750629    -1.859152780900     1.277333248303
O     -1.556943048075    -1.073563551535    -0.660092982787
C     -2.965712353010    -1.317268370657     1.303288948688
H     -2.802222181007    -1.434197289518     2.376996792942
C     -3.995042376964    -2.317137018501     0.825634470126
H     -4.939422731784    -2.166850678020     1.388665387984
H     -4.195530639687    -2.156598975974    -0.253576246160
H     -3.631399497519    -3.351735144213     0.991911228798
N     -3.479802450000     0.030249728210     1.052923201213
C     -3.317873036735     1.023314932328     1.974285036432
O     -2.779107141949     0.881098887684     3.095543918403
C     -3.836435285053     2.346739066243     1.570044393880
H     -3.296192147077     2.666912619393     0.663899745207
H     -4.914597959966     2.238446282667     1.369510856366
H     -3.658788776076     3.066052084034     2.389647090929
N      2.493794650269    -1.298331264120    -0.927561700766
C      3.477442524556    -1.154302308730    -1.869407473970
C      4.780437007437    -1.481301509988    -1.560905642323
C      5.108040562303    -1.945760328243    -0.306028180183
C      4.107135522516    -2.083218645005     0.619306384877
C      2.781968481147    -1.746778365868     0.272357371439
H      3.229196241951    -0.781889851081    -2.856687208658
H      5.549054822820    -1.362036004820    -2.306967056913
H      6.135494460702    -2.197189952319    -0.055944317261
H      4.298899206700    -2.435758219212     1.613977370848
O      1.920768357333    -1.911325481986     1.247234587112
H      0.872883646655    -1.834696254068     1.132938563696

