# STO-3G

title

0 1
C      2.505948584435     1.967069266801     1.234493122169
C      2.987109113661     1.304508518147     2.386479705191
C      3.896805487560     1.949638522302     3.245764602119
C      4.334167629648     3.260300890043     2.970799987553
C      3.860069386842     3.923960268156     1.822382358377
C      2.952327716087     3.279145056096     0.961686942685
H     -1.889018519891    -1.952990206113     1.954746418382
H      2.655361348248     0.289481439812     2.593803001690
H      4.269153444172     1.426658997955     4.124274152428
H      5.039926413916     3.753901851707     3.635366785033
H      4.201374053115     4.931733709241     1.594626246897
H      2.596110109605     3.794608422798     0.068777618756
C      1.483098087356     1.284958338781     0.329548312958
H      1.617686524866     1.656872555338    -0.706161656826
H      1.650815811908     0.205284019452     0.302487630676
C      0.027386825237     1.533303288287     0.781067811610
H     -0.328476698886     0.778316046931     1.470148912569
C     -0.403270686435     2.889585611242     1.168224954107
O     -0.517804766327     3.721410210636     0.229384878566
O     -1.159494844336     3.031636496919     2.341856799438
C     -1.614678907518     4.360667261119     2.631661831539
H     -2.172359772855     4.356230481168     3.593275408676
H     -0.753887583975     5.060215196289     2.734396516396
H     -2.301796049229     4.729444100233     1.836588670270
Pd    -0.882150880652     1.370088388315    -1.050678852599
C     -0.563734309854    -1.455673010020    -0.537961896972
O      0.325384724869    -1.415548337962    -1.454205124401
O     -1.462934822750    -0.533451205573    -0.312686023709
C     -0.546712839268    -2.636693192318     0.464070144486
H      0.477709658114    -3.017339099097     0.486570299658
C     -1.491108621575    -3.751699694342     0.073214527811
H     -1.414630355651    -4.574188886002     0.814234034857
H     -2.533164727178    -3.371766253925     0.067533333743
H     -1.228985246719    -4.140863756147    -0.932185121318
N     -0.911398594287    -2.166650630161     1.798984345440
C      0.035661872035    -1.598149311179     2.593864881388
O      1.243314612900    -1.473136330891     2.273938963470
C     -0.403443380020    -1.099983017384     3.915507360537
H      0.192530502198    -1.627139083882     4.678990254533
H     -0.195061217480    -0.017635597962     3.951239182542
H     -1.478590156107    -1.295759087216     4.072583455572
N     -1.282858136470     1.428869961714    -3.175433193695
C     -2.200446758045     2.294098569739    -3.709032796119
C     -2.243866574257     2.504094335745    -5.071680386019
C     -1.371669606945     1.845087706978    -5.909943194364
C     -0.473106076717     0.972625876624    -5.355723900342
C     -0.465288601041     0.773593186137    -3.958035900820
H     -2.883478223231     2.825220367264    -3.056116628920
H     -2.964845933861     3.193325481208    -5.480537836450
H     -1.399470275477     2.008927008717    -6.984083402014
H      0.225011715939     0.419373865515    -5.952680426788
O      0.423328162698    -0.105369204772    -3.552194887112
H      0.365319483188    -0.553414688914    -2.595202487924

