# STO-3G

title

0 1
C      1.309592970978     2.699203874238     0.623232863516
C      2.209976790190     3.414414638245    -0.198404046855
C      2.783214347506     4.621208997525     0.241113672590
C      2.461163876569     5.134089070544     1.513156954608
C      1.568662869763     4.427272485288     2.341905869823
C      0.997696399209     3.220034235177     1.898284780217
H      1.194576370509    -1.477851918255     1.444788742972
H      2.477263347228     3.014282952663    -1.176456638869
H      3.483638860931     5.153623533302    -0.398546803180
H      2.907402327763     6.064310363688     1.856723522186
H      1.326100899873     4.809472588911     3.330728685399
H      0.317825099569     2.673369048212     2.550090226682
C      0.659676579199     1.415648586721     0.119621233716
H      1.370569603610     0.859264022357    -0.498775365069
H      0.399880062020     0.770625045805     0.961645232877
C     -0.576081654954     1.788223027007    -0.728370667516
H     -0.280559260791     2.429316334165    -1.552851251636
C     -1.803477687301     2.296553197359    -0.085035722122
O     -2.752563413138     2.606153900944    -0.852275692834
O     -2.028662572117     2.046168715106     1.279298308014
C     -3.306502026754     2.448269863505     1.790250174174
H     -3.355652881422     2.219393331088     2.876678746758
H     -3.458546822551     3.543668275577     1.659131356151
H     -4.128022037778     1.893614427225     1.282615817869
Pd    -1.410861195349     0.208427764519    -1.813913060741
C     -0.892022604032    -1.404810241445     0.382471524069
O      0.166560810940    -1.572030572055    -0.331484071240
O     -1.974039222353    -0.806905971120    -0.033541476813
C     -0.807575367305    -1.885895095546     1.858258612187
H     -1.226887525260    -2.903656121970     1.895516089914
C     -1.583416898522    -0.985924624424     2.802942375438
H     -1.544934772327    -1.380449910865     3.836336659346
H     -1.131123345593     0.027387306649     2.799175624294
H     -2.645485144215    -0.915639801002     2.489958793219
N      0.615931547215    -1.838201589043     2.204320026890
C      1.336974479034    -2.253114122107     3.280705637111
O      2.558574224479    -1.993259651768     3.402835867195
C      0.676354711681    -3.062636024258     4.331249588595
H     -0.313448803895    -3.410126050643     4.006876946700
H      1.327177698879    -3.933615436153     4.518929631510
H      0.609648215089    -2.441067181364     5.240072629500
N     -0.187963661919     0.665797359267    -3.398035703711
C     -0.504698170913     1.495948224246    -4.439931817931
C      0.402865111934     1.701663233889    -5.456776918958
C      1.631500372523     1.077885118361    -5.437020429161
C      1.923561737762     0.250156678481    -4.385239451570
C      0.973601303071     0.059353826100    -3.360740107700
H     -1.467393483236     1.993903055545    -4.460436298020
H      0.148157251883     2.359826337733    -6.271976295353
H      2.351879385823     1.239789174316    -6.234795146548
H      2.864408355780    -0.259813107903    -4.307377488212
O      1.380684681331    -0.741931795148    -2.401919312801
H      0.767727915063    -1.028833224249    -1.604845829820

