# STO-3G

title

0 1
C      1.188306985707     1.815574534068     1.673334780587
C      2.314498378892     2.445914072804     2.249430233438
C      2.190823207700     3.247614411921     3.400715969834
C      0.929788549228     3.437747766424     3.995649657109
C     -0.201645355760     2.819321457618     3.428133641106
C     -0.075417094582     2.015014214993     2.280510830623
H     -0.212840166127    -0.614608640074     2.769423961422
H      3.295316757125     2.305799207549     1.797366402932
H      3.072505603139     3.719986057774     3.828507504291
H      0.829915539465     4.056722301705     4.884287289784
H     -1.182027928571     2.961541285249     3.877989422931
H     -0.955717679290     1.543068182289     1.851493715300
C      1.360062023088     0.966538940079     0.423451680976
H      2.433063662223     0.896842873790     0.187752184242
H      1.058158411538    -0.068583014977     0.602021001770
C      0.675721557086     1.473043685431    -0.864324770413
H      1.192620381998     1.032698923953    -1.716731154303
C      0.494620389640     2.926277277950    -1.040350595056
O      1.165501972478     3.508757107817    -1.931345773156
O     -0.750674575543     3.442898469344    -0.646835804954
C     -0.883967144995     4.867264374350    -0.749776607152
H     -1.889056670957     5.171274290829    -0.385428908655
H     -0.121704980736     5.380016482983    -0.119127410696
H     -0.779197617762     5.205348774867    -1.805937619229
Pd    -1.280950924371     0.826576740142    -1.135866913593
C     -0.923606008253    -1.503759691244     0.390750601078
O     -0.529542830658    -1.905744991449    -0.756817356135
O     -1.461677472091    -0.322155567862     0.626405595382
C     -0.619072561667    -2.355163724641     1.640227129879
H     -0.025003834010    -3.221930947311     1.342774126063
C     -1.861324735731    -2.800791086305     2.378432991987
H     -1.564748874163    -3.418156906546     3.251481061400
H     -2.412191977765    -1.910384773005     2.745576849759
H     -2.512089453758    -3.400092908495     1.709708026648
N      0.182751121436    -1.521099168315     2.540874238006
C      1.491709828978    -1.812123935461     2.792533416009
O      2.104460590058    -2.801463918043     2.329465232302
C      2.217020564434    -0.878234264319     3.681980643442
H      2.589075947968    -1.459519349710     4.540990390601
H      3.056743424948    -0.459136026523     3.105583054504
H      1.554133066773    -0.064592186208     4.028327063866
N     -0.955527549562     1.085237118097    -3.146762915223
C     -1.259847622377     2.196354483610    -3.887689284789
C     -0.998899816938     2.214680640660    -5.240983498694
C     -0.420740471848     1.127772466968    -5.858761697091
C     -0.122201872957     0.028790442691    -5.097066610807
C     -0.406659240004     0.037081869547    -3.715833358161
H     -1.708244846705     3.059126492506    -3.408805739270
H     -1.236455275792     3.095333040542    -5.815443791440
H     -0.204577437481     1.142446902207    -6.923907336793
H      0.333765052778    -0.845842841546    -5.518463626648
O     -0.057713386441    -1.066663972389    -3.097855176351
H     -0.296835347954    -1.283002758437    -2.097995305416

