# STO-3G

title

0 1
C      0.059819470275     3.716350938898    -1.708558505966
C      1.277578302885     4.141575474871    -2.287168380000
C      1.532659777761     3.953515450205    -3.658802625797
C      0.566034571836     3.339193688893    -4.480141702159
C     -0.655390754691     2.920694671605    -3.916953907287
C     -0.903605347517     3.108791285550    -2.543563251222
H     -2.145705963701    -2.810205381197     2.053152226816
H      2.024009677483     4.632057566960    -1.662983797163
H      2.472134549759     4.297398233302    -4.087501443766
H      0.755917518904     3.202435632213    -5.542607703565
H     -1.413504982303     2.454863228684    -4.543164610238
H     -1.851250441736     2.783812030831    -2.116557653660
C     -0.186179304194     3.890273967994    -0.219372277585
H      0.101391676137     4.908449210156     0.090788303404
H     -1.254377841553     3.793237880176     0.017495240266
C      0.602729737553     2.859628713301     0.617072782686
H      1.616503158560     2.714179220305     0.248504059582
C      0.634471377302     2.980249641922     2.091853097588
O     -0.144545829438     3.777340640881     2.677050581344
O      1.626574395889     2.276914679383     2.790815111116
C      1.524908110566     2.309045061277     4.220784599695
H      2.345668223250     1.702606029011     4.660746487944
H      1.614831303739     3.350977442354     4.603269124148
H      0.556795474472     1.871190506356     4.556449105328
Pd    -0.365827968506     1.126924903912     0.122893006156
C     -1.708962044012     0.325281790361     2.232837548716
O     -0.595643836374    -0.029670232835     2.774901666018
O     -1.952089532959     1.448480497070     1.614465742727
C     -2.826669461682    -0.762182727897     2.122794630402
H     -3.610224986589    -0.362729742372     1.470505767415
C     -3.418405642265    -1.144583670391     3.461446565276
H     -4.204121038372    -1.913971093328     3.313634432406
H     -2.621209881897    -1.561766019004     4.111557514415
H     -3.865285302145    -0.254122062979     3.949271377786
N     -2.228709696084    -1.961616704774     1.508482925645
C     -1.581854745415    -1.905412094369     0.325996095783
O     -1.433092091888    -0.864358460551    -0.374900987455
C     -1.004507066243    -3.174115359554    -0.159133692459
H     -1.824892407992    -3.905065572159    -0.256224457973
H     -0.522542049547    -2.996395775959    -1.136318505947
H     -0.259016927635    -3.516470602808     0.580342558874
N      1.398742613137     0.325456026731    -0.519112006445
C      1.894196762335     0.499221727958    -1.782895176174
C      3.083255875955    -0.101768303319    -2.140537558242
C      3.772585490328    -0.881590959021    -1.237411918346
C      3.245656020648    -1.045707720488     0.017454979201
C      2.029179466904    -0.413149733621     0.350996673319
H      1.353629743360     1.106379827855    -2.498027110367
H      3.470008331050     0.043299821662    -3.135889447497
H      4.709548075830    -1.357439478363    -1.514385955628
H      3.730819483210    -1.641613870966     0.764815294838
O      1.626740283988    -0.661943876690     1.584426828141
H      0.766838353615    -0.256084802318     1.983858374373

