# STO-3G

title

0 1
C      0.256030210079     3.040082438414    -0.408298345381
C     -0.519291898985     3.914931114408     0.383356472627
C     -0.302094450209     5.305302107526     0.328553822835
C      0.687893583637     5.840205858548    -0.517620746455
C      1.456430080579     4.974819759794    -1.322013290947
C      1.240860371884     3.586738618465    -1.264248553868
H     -2.941167010753     0.039459677018    -0.046810670663
H     -1.311399254372     3.511208359105     1.009383077371
H     -0.915124246841     5.967381541927     0.935952794505
H      0.849739397377     6.914927042706    -0.560560686866
H      2.209926313114     5.381279624187    -1.993355743982
H      1.826308442648     2.923590899357    -1.902249808549
C      0.075268831202     1.526970388012    -0.323537715117
H     -0.895478477582     1.282762762596     0.111704760740
H      0.089364356845     1.097938874311    -1.328702160991
C      1.239408426487     0.942458200934     0.509179714559
H      2.187986620039     1.298278591536     0.120591475253
C      1.220368479017     1.048830643827     1.984727643296
O      0.125240216396     1.011527653762     2.604239730774
O      2.435279184116     0.824525204070     2.654608688206
C      2.371274035545     0.860635813036     4.087822380999
H      3.386463363343     0.694792825191     4.508606520007
H      2.006507886979     1.851859716885     4.442661058356
H      1.699499840215     0.060848296207     4.475548953019
Pd     1.519884502477    -1.095441823177     0.161151699104
C     -1.160401280894    -1.587217938896     0.679033821656
O     -1.180904294104    -1.481512673415    -0.606858291019
O     -0.084098774060    -1.682725100700     1.411081790235
C     -2.513395652333    -1.408152423601     1.407653883554
H     -2.334625509963    -1.448557486900     2.484164671543
C     -3.541332142333    -2.448653981009     1.025459624775
H     -4.483263289966    -2.253886142624     1.578046233731
H     -3.751408028975    -2.375587288580    -0.062744994771
H     -3.171847438890    -3.465425353624     1.268953408095
N     -2.999782232375    -0.093458503084     0.963526368169
C     -3.134238184412     1.065764226349     1.666438236920
O     -3.229206124237     2.188259387481     1.109694777649
C     -3.235213817212     0.972530114897     3.139171977027
H     -4.046840589547     0.268443809527     3.383941908910
H     -2.260008962859     0.641112277053     3.529806289344
H     -3.467215202300     1.977230746525     3.535806969281
N      2.426304256244    -0.654001778179    -1.632175808944
C      3.752184918114    -0.368637894654    -1.821578085096
C      4.231273379490    -0.127407146521    -3.090919546310
C      3.387415016888    -0.172240774955    -4.179192277666
C      2.066555976405    -0.465075698215    -3.965620570106
C      1.605844080297    -0.705711134035    -2.654755894079
H      4.422450051004    -0.327099489752    -0.970723207552
H      5.275457847652     0.102175501375    -3.231293470625
H      3.759690222455     0.021718276776    -5.181929301718
H      1.357158109741    -0.506501985742    -4.769660763527
O      0.317482934776    -0.952525618398    -2.584555091257
H     -0.185097649780    -1.175662392107    -1.689506403866

