# STO-3G

title

0 1
C      0.243367701364     3.279789311965     0.058207871330
C     -0.319946781675     3.051603438862    -1.231725897920
C      0.239551608887     3.644755640214    -2.376796615533
C      1.372855044569     4.477812220039    -2.268922464813
C      1.962869252688     4.692443043078    -1.008181433586
C      1.409201390659     4.093585515799     0.140749883614
H     -4.119142111135    -1.191632490691     0.538633446075
H     -1.193223430981     2.410990428466    -1.312873553811
H     -0.214817622391     3.464619904388    -3.348431870647
H      1.784843667377     4.957185387009    -3.154351456798
H      2.834425041722     5.335857338612    -0.911601715021
H      1.839680862684     4.317815702048     1.115376270375
C     -0.501049470725     2.816331031911     1.331518859895
H     -0.541492214136     3.638251423025     2.056446497099
H     -1.527436803232     2.551187049447     1.065367922287
C      0.174571122193     1.549462628170     1.886146252298
H     -0.539125569898     0.772010915183     2.117051930181
C      1.224914861411     1.611854147252     2.926849542916
O      2.099685773754     2.512732657690     2.853923122261
O      1.434892234958     0.471432661762     3.717938567068
C      2.515767716485     0.548004762377     4.658352653130
H      2.567464344526    -0.400105523696     5.236447053879
H      3.489108004340     0.688000217512     4.135442059248
H      2.356962400111     1.383679548322     5.377295903061
Pd     1.157390499387     1.012199614835     0.170141482803
C     -1.213734739327    -0.705592125519     0.216235088365
O     -1.718694003997     0.210715020200    -0.477040869993
O      0.103289808451    -0.929056132752     0.343512260829
C     -2.106074225343    -1.634224078738     1.082550748795
H     -1.615189437243    -1.723405044017     2.056889466073
C     -2.269172741265    -3.015291790833     0.485950455927
H     -2.898834578339    -3.634528501828     1.157864130709
H     -2.770121872463    -2.935887899462    -0.500792130606
H     -1.279239381054    -3.500981140830     0.362536485103
N     -3.426357469805    -1.040538386377     1.260639651399
C     -3.570508730607     0.032283258985     2.084692722953
O     -2.652408863352     0.514166583200     2.790869378167
C     -4.918410452760     0.634990660350     2.122634049125
H     -5.628342513690    -0.148653486832     2.435982000342
H     -4.911739173079     1.469069484626     2.845065847685
H     -5.158582415843     0.999965346403     1.108887184329
N      2.255510444549     0.486030979173    -1.646862487411
C      3.094931586614     1.409220246089    -2.211148202110
C      3.768801276949     1.112030229226    -3.378794263541
C      3.602712832487    -0.111031808899    -3.990738681525
C      2.762534991624    -1.020305000945    -3.404695919485
C      2.093865456909    -0.675938811195    -2.210869126911
H      3.247174437006     2.364917267725    -1.728657954315
H      4.427235316657     1.846753448616    -3.812345047536
H      4.127582685581    -0.349653319283    -4.912010957674
H      2.587345538794    -1.989904651935    -3.826585811009
O      1.308704278661    -1.627654866590    -1.738639563962
H      0.800893924537    -1.388219474457    -0.865612482192

