# STO-3G

title

0 1
C      2.090292517237     2.222948017020     1.347515878019
C      2.648795658019     3.090036754476     2.311069551197
C      3.430936855833     4.195103092784     1.922154404765
C      3.665610999396     4.457286052663     0.557666213164
C      3.123603502220     3.595603615274    -0.414513847617
C      2.352712765297     2.486547005627    -0.018999523518
H     -2.560802463605    -1.956463445880     1.543279436656
H      2.470624412257     2.900521160352     3.367567389934
H      3.855691134932     4.850196736350     2.679684075955
H      4.268688106520     5.310951203718     0.258218609600
H      3.313858958914     3.771850869754    -1.471098146065
H      2.021294829684     1.773889912141    -0.783079613722
C      1.165466168425     1.089220454642     1.738405257985
H      1.497501174730     0.144780709990     1.280677570500
H      1.184704771126     0.891022605897     2.818213893286
C     -0.287656457880     1.330265752738     1.282206148970
H     -0.923076977612     0.534612693874     1.651923737253
C     -0.918125827221     2.644892380533     1.493017308585
O     -1.114314656457     3.332450206866     0.456089698789
O     -1.714970324818     2.822560500106     2.635337909860
C     -2.418791422877     4.069937317016     2.715923610872
H     -2.990127242594     4.109202064858     3.668609738258
H     -1.708406863707     4.927755918719     2.701643854882
H     -3.142666441068     4.173044940660     1.875619988015
Pd    -0.245201187964     1.237861713711    -0.761756529912
C     -0.291154839972    -1.584620967325    -0.187032983763
O      0.914068327571    -1.584645111258    -0.618516297802
O     -1.173098257923    -0.650323148890    -0.425726551195
C     -0.731870154020    -2.716486364850     0.774638070897
H      0.177018623556    -3.102721548333     1.243774012470
C     -1.449890068066    -3.841634604460     0.062943679196
H     -1.714507080772    -4.631006251562     0.796619808988
H     -2.381796979527    -3.454902496525    -0.397911798557
H     -0.797199478455    -4.276919773068    -0.721658746153
N     -1.612309152810    -2.188331083109     1.812423402790
C     -1.093070427984    -1.647248015206     2.950424652213
O      0.129734445024    -1.579786159256     3.217480282038
C     -2.083715606856    -1.108755344971     3.906144617137
H     -1.547377375145    -0.711198087190     4.785661527642
H     -2.649459989564    -0.307404764596     3.402746299743
H     -2.754407057953    -1.933972020024     4.202076071360
N      0.127299798685     1.197943464563    -2.898663914776
C     -0.519347843389     2.069004236589    -3.734092455312
C     -0.124208678426     2.186587492957    -5.050796713954
C      0.917085259998     1.428245884498    -5.539496646808
C      1.538955574955     0.553914904727    -4.687946837801
C      1.099406677074     0.453107769758    -3.350116877366
H     -1.332905000448     2.676467225797    -3.354336347730
H     -0.634781683295     2.880576610992    -5.698521154212
H      1.234609158854     1.518565640189    -6.575019258454
H      2.350303079074    -0.070886525567    -5.005555307806
O      1.764813258196    -0.428713644977    -2.635076385023
H      1.377979565064    -0.813117530618    -1.726253972551

