# STO-3G

title

0 1
C     -0.265754526741     3.534619464429     0.117797296444
C     -1.327158014324     3.914738070020     0.973205434445
C     -1.631256195870     5.274759532609     1.162827732891
C     -0.880126326707     6.273372156231     0.510241827773
C      0.180625180636     5.901044013428    -0.336895606591
C      0.484701962311     4.539197418225    -0.528882166161
H     -3.541510241637    -1.275026729590    -0.377558310517
H     -1.904755714114     3.143552617788     1.478479403855
H     -2.451323934797     5.556139734095     1.820311808720
H     -1.117942787803     7.324301867246     0.659470709897
H      0.765655762781     6.663656916418    -0.846795460793
H      1.307229002740     4.256538247824    -1.185787477452
C      0.076129320543     2.057680096513    -0.059026315235
H     -0.803124945196     1.481655325592    -0.358869750976
H      0.810276775414     1.962470180772    -0.887162343423
C      0.641402036310     1.416398397396     1.223904836303
H     -0.131945930042     1.018295876701     1.867778699599
C      1.724400561824     2.090422166261     1.963638607658
O      2.837050821723     2.146756960600     1.374703217342
O      1.662308520706     2.104434535014     3.365067803412
C      2.776876115809     2.712315689226     4.032331253100
H      2.601108456517     2.693288616700     5.129786980443
H      3.718604981708     2.155836153506     3.823965273231
H      2.893680837606     3.774841202203     3.719302158554
Pd     1.739947800033    -0.038594655810     0.271283959547
C     -0.755596018464    -1.410407918142     0.404493330553
O     -0.820234981207    -1.059348686826    -0.833587707661
O      0.315492295030    -1.388712012231     1.135437349175
C     -2.093064787768    -1.779334730508     1.097053245301
H     -1.992213193225    -1.534859195715     2.157460112175
C     -2.451113491010    -3.241208376552     0.947716630667
H     -3.411701301420    -3.438758881008     1.466968890509
H     -2.569662758636    -3.486613680772    -0.127825036425
H     -1.657720019405    -3.877263791292     1.390941843425
N     -3.164889761836    -0.974158444699     0.513711574994
C     -3.259869442627     0.341824213021     0.839311017894
O     -2.540100256171     0.916536096557     1.692893035554
C     -4.285530620035     1.113035292427     0.109031927702
H     -5.262874163551     0.639949986805     0.301330346282
H     -4.273569592521     2.153622240614     0.477183395309
H     -4.038039955006     1.082164261245    -0.966206204611
N      2.820972972797    -1.089667797703    -1.291134171579
C      4.157325278022    -1.374109511495    -1.199368720488
C      4.852862070201    -1.797118624546    -2.313147597373
C      4.213191113543    -1.943317197032    -3.524619735690
C      2.873161179395    -1.666813372852    -3.588580676298
C      2.192327182624    -1.246439842798    -2.425665852131
H      4.670588148557    -1.252555519751    -0.252394099296
H      5.906258872078    -2.011353251561    -2.232172651796
H      4.756631382368    -2.274339831683    -4.405811719276
H      2.313119728726    -1.770834313132    -4.497085414850
O      0.905432069271    -1.033914200208    -2.609647096673
H      0.244832934194    -0.962989043394    -1.786972646581

