# STO-3G

title

0 1
C     -0.279076647080     1.814990229130    -1.917449253720
C      0.564439500039     2.889327899607    -2.274797372357
C      0.270817711344     3.674752454333    -3.408060707306
C     -0.859537355161     3.389609538345    -4.198297313579
C     -1.702638493473     2.320742796002    -3.839368977724
C     -1.418200265803     1.537312200943    -2.701688842482
H      2.255432715308     0.995303492352     1.270928951466
H      1.433391333757     3.135331126750    -1.667366426565
H      0.918388169113     4.511911995573    -3.663795705000
H     -1.086600399625     3.998898459676    -5.070529444439
H     -2.588730336837     2.102737809072    -4.433251957633
H     -2.097132174170     0.737911525666    -2.417537746437
C      2.029465114930     2.737653717096     2.239562934854
H      2.821844599671     2.444740306297     2.925195943544
H      2.328885779842     3.337734590193     1.382857490800
C      0.719371934156     2.432492423076     2.421320096002
H     -0.023037378726     2.766801561932     1.707274513664
C      0.198689609793     1.638528831236     3.547967372423
O     -1.040220765200     1.404588016884     3.609345179609
O      1.092726913359     1.045997180869     4.460048942949
C      0.503368530476     0.206554880559     5.463014620085
H      1.303176070131    -0.198995294462     6.119099789805
H     -0.206395349847     0.785348304036     6.096181493006
H     -0.031336772964    -0.652575446762     4.997248445605
Pd     0.184871972944     0.642102553449    -0.380612241911
C     -0.888928814264    -1.236102528865     1.837914619067
O      0.365820399241    -0.748050638451     1.407932058613
O     -0.967856208402    -2.054205491450     2.754527231683
C     -2.035181381126    -0.620437123409     0.997610830339
H     -2.901546313681    -0.637069420283     1.674625921295
C     -2.360110466714    -1.501003724175    -0.191620993012
H     -3.224792418429    -1.072667100006    -0.739843538369
H     -1.491107708955    -1.544174665509    -0.879307590864
H     -2.619565418647    -2.527316264395     0.143962814829
N     -1.661819008921     0.699438570705     0.483807230756
C     -2.245073015972     1.876587991833     0.816301436877
O     -1.719789325267     3.002897347390     0.573162695727
C     -3.588476693101     1.863416826311     1.449036195087
H     -4.268551044680     1.268133782123     0.818515816071
H     -3.485151480135     1.455766492359     2.468727654510
H     -3.953832757512     2.904811673720     1.514910567549
N      2.108155505006     0.267902931556    -1.135698615271
C      2.295211198016    -0.006308730550    -2.466801110893
C      3.499517661691    -0.523925386476    -2.903598253202
C      4.524376760342    -0.759346089318    -2.012114865636
C      4.314111742675    -0.464549518845    -0.691158868170
C      3.072210922526     0.073181512998    -0.295470658131
H      1.493938386851     0.159948055746    -3.176797649601
H      3.635129387832    -0.740141882713    -3.950611213402
H      5.475082812884    -1.164049147728    -2.348785448995
H      5.066701997401    -0.607454774950     0.057732194135
O      2.976226152232     0.342970884424     1.013858586574
H      1.138907972050    -1.095857222676     1.904201392137

