# STO-3G

title

0 1
C     -1.306634548971    -0.306763000110     2.564797832401
C     -1.655529357581    -1.673468100496     2.567505803642
C     -2.810458255370    -2.111519567694     3.245424585659
C     -3.622843121274    -1.183395715324     3.927346472078
C     -3.276597169992     0.182746967098     3.932127782041
C     -2.120689548074     0.617823227110     3.252458465882
H     -0.426537614267     0.054639272715     2.042163894070
H     -1.036299311803    -2.395418120461     2.036928709147
H     -3.074540573150    -3.166988428404     3.241824320726
H     -4.513801106544    -1.522227847102     4.451291675779
H     -3.898744178867     0.899238639447     4.463936135153
H     -1.839736239274     1.668873893895     3.269681752647
C      1.224267778536    -1.261627983591     0.247114421798
H      1.320284439706    -2.020580342512     1.029567181177
H      0.247540801351    -0.785153548822     0.279319379916
C      1.552584976046    -1.775924951451    -1.148266584888
H      1.678351649659    -0.947435848681    -1.839713963565
C      0.615065419191    -2.757731315632    -1.779152402624
O     -0.304131947265    -3.272389474995    -1.074013610290
O      0.582638851189    -2.870010831191    -3.184544369396
C     -0.367442815626    -3.800088112391    -3.719378025537
H     -0.280896385129    -3.812593125631    -4.826646682133
H     -0.166115344830    -4.827432795475    -3.340972484062
H     -1.405366590142    -3.500123647639    -3.453835282982
Pd     2.471902983284     0.259258310188     0.671242729019
C      0.778271025760     2.423120672953     0.010449225342
O      0.825496084191     1.436815681177     0.910737224428
O      1.767415994009     3.107611533110    -0.357197730831
C     -0.633567176902     2.656500770320    -0.611613816526
H     -0.456018188106     2.840096884663    -1.677205135726
C     -1.330348337092     3.861941363747    -0.018231835961
H     -2.316102265037     4.005806109664    -0.508443673008
H     -1.478347284083     3.719486854529     1.071749343496
H     -0.715397572951     4.771933456419    -0.183216068187
N     -1.524068816269     1.507906928154    -0.480152401945
C     -1.390549889183     0.413969364625    -1.267536928121
O     -0.480178361087     0.241416101844    -2.119204135649
C     -2.431391862444    -0.620748763368    -1.094951536391
H     -3.413843286275    -0.172910046328    -1.320176307210
H     -2.222329577910    -1.443552944947    -1.803684777097
H     -2.394856210669    -1.014441888288    -0.065659076848
N      4.033329988814    -1.017203700776     0.313653530254
C      5.212555946036    -0.696011553304     0.933533752896
C      6.332410425578    -1.480496409750     0.752838306137
C      6.278316552486    -2.593345126095    -0.056565320136
C      5.090936484951    -2.892359050592    -0.665598103699
C      3.965327290947    -2.062433314695    -0.456735078438
H      5.263935392401     0.178504263766     1.571492018416
H      7.254079016386    -1.217699083608     1.244881939786
H      7.154661220085    -3.217514363228    -0.208388202349
H      4.972429415980    -3.739292139270    -1.310964536153
O      2.890790738893    -2.487857215620    -1.112448790336
H     -2.080878627809     1.409074771449     0.359156176658

