# STO-3G

title

0 1
C      1.521881966450     2.555877506498     0.134336570603
C      2.564371768078     3.447934936397     0.456909942783
C      2.625395684554     4.712825646000    -0.166295167315
C      1.650253258244     5.090910643544    -1.107858643773
C      0.620164235441     4.189369224838    -1.438938015791
C      0.556621435416     2.920728579289    -0.826640237172
H      1.673572270920    -3.107670016748     3.377339216095
H      3.329691002340     3.178415640695     1.180454469063
H      3.431679808060     5.396323379612     0.092085434220
H      1.698136259364     6.068591171032    -1.581476156299
H     -0.127559704640     4.463214413644    -2.180266883887
H     -0.215749807688     2.217645611801    -1.123239108319
C      1.784645145185     1.402823292366     3.098182160809
H      2.520672510705     2.199868226303     3.116236105026
H      2.105074991890     0.434138462515     3.464677609876
C      0.426469867977     1.661915021582     2.885758239669
H     -0.304216584694     0.877266155313     3.031880005306
C     -0.133317132554     3.019919061977     2.746501368758
O      0.599995167558     4.024745302617     2.944990161669
O     -1.469568751090     3.159737992473     2.335768819589
C     -1.903734268755     4.502734705259     2.079242334550
H     -2.967229387082     4.493219715128     1.757884687212
H     -1.824198104753     5.127096662878     2.998370395077
H     -1.296635635215     4.964670544130     1.266398978580
Pd     1.385689806867     0.769149072196     0.997656986421
C      0.639007436148    -2.262078258547     1.972679541347
O      1.313579204470    -1.217176742958     2.065373729471
O      0.925538881786    -3.329049863467     2.776257205663
C     -0.540748938188    -2.511980471057     1.026311208035
H     -1.269832762282    -3.084623147346     1.614225545938
C     -0.132197129214    -3.337846954748    -0.175903346260
H     -1.001151119589    -3.474769595833    -0.852417001605
H      0.685063148537    -2.830260072008    -0.727803350444
H      0.225543358177    -4.335785409286     0.154290321919
N     -1.135978920598    -1.276080550097     0.559035680969
C     -1.838419194773    -0.542807058059     1.446503629969
O     -1.907700317667    -0.782464330452     2.685671564244
C     -2.573386708476     0.600477984435     0.876314232634
H     -3.286711561468     0.213154324747     0.129405889225
H     -3.117263316207     1.108248902387     1.694014521804
H     -1.856192789701     1.297637728864     0.413824390791
N     -0.283732487337    -0.323102237716    -1.832827918038
C     -0.997188515961    -0.482620782939    -2.991644078158
C     -0.342777707391    -0.585777066449    -4.201725643728
C      1.032451002837    -0.530153444113    -4.262521236043
C      1.729125830135    -0.367969514098    -3.095586951088
C      1.027531545830    -0.254001691354    -1.871525223576
H     -2.079064245356    -0.533887369384    -2.953386200507
H     -0.915263653871    -0.713578266467    -5.105747223207
H      1.551992546423    -0.612539100408    -5.213509304897
H      2.798957379014    -0.311282413576    -3.071067874516
O      1.791404439301    -0.105410702191    -0.822157376903
H     -0.852170529087    -0.857136069124    -0.387056784638

