# STO-3G

title

0 1
C      0.382462558985     2.819658267263     0.551682594742
C      1.184055600033     3.841036886369     1.238640333388
C      1.632779409093     4.951458575161     0.567079696998
C      1.177340829564     5.231051556115    -0.786084205889
C      0.163019143790     4.452162177132    -1.383183646819
C     -0.036843647154     3.128774827642    -0.837418223952
H     -3.402460274788    -0.158458984722     0.235635781720
H      1.453988737030     3.683544663953     2.281751532829
H      2.297131954430     5.662554468772     1.049409248218
H      1.484887019081     6.160997242102    -1.258936630121
H     -0.391297610541     4.794269900524    -2.251259833665
H     -0.747207605308     2.458304674148    -1.308806600906
C     -0.485769737554     1.793637779475     1.352838968997
H     -0.600214371676     1.945713347154     2.419329955365
H     -1.389166923092     1.481962862839     0.844962407263
C      0.798688634483     1.273572991848     0.790396315804
H      0.741143149055     0.744319504985    -0.145719860472
C      1.978014318608     0.885484507885     1.596742593121
O      3.010376476042     0.474677457069     0.999201671365
O      1.989276517296     1.126299502198     2.983959260158
C      3.160871594165     0.690755022781     3.686071621759
H      3.044975074269     0.917007589718     4.767723784248
H      3.300557998066    -0.408494951046     3.574354207477
H      4.065897471341     1.220340495783     3.312378460890
Pd     1.744123844763     3.112773480875    -2.058007347288
C     -1.141371891729    -1.411853335556     0.139370472839
O     -1.548049248986    -0.589337032586    -0.849568722975
O     -0.050028514849    -2.017884348131     0.172560164762
C     -2.185939490477    -1.506471312148     1.276302227087
H     -1.657964627340    -1.446595334815     2.233258165178
C     -2.964613942049    -2.803016529269     1.228597527555
H     -3.659980087346    -2.845625840083     2.092290094994
H     -3.557085285395    -2.839376566932     0.291722651001
H     -2.273027905482    -3.669600174767     1.272831157608
N     -3.136505990978    -0.400705434760     1.185650114871
C     -3.358134971490     0.451271349189     2.218068123130
O     -2.808758436161     0.384807875644     3.344846319578
C     -4.319059016683     1.538936278809     1.935921597036
H     -4.421189739390     2.162407157975     2.841150353909
H     -3.922332934586     2.132869467046     1.096411339465
H     -5.285193599690     1.077928740699     1.668097268232
N      2.241985669033     1.149081233138    -2.655668885095
C      3.516336031319     0.805748380820    -3.020175282299
C      3.813735174341    -0.492993807136    -3.371655036316
C      2.842787850017    -1.468436333132    -3.337235064822
C      1.572993280241    -1.111228382142    -2.972794082807
C      1.292574766314     0.231274452590    -2.624026880122
H      4.293313095942     1.560935460187    -3.036466992659
H      4.822694247819    -0.751835359641    -3.647506760091
H      3.079518221290    -2.498925223908    -3.588714779015
H      0.784653173760    -1.833954219907    -2.901158109251
O      0.081133907414     0.492115744457    -2.254012804373
H     -0.799680662777    -0.250227976944    -1.561564919689

