# STO-3G

title

0 1
C      1.812415200527     2.977887298175    -1.399443390996
C      3.145627036602     3.405150903573    -1.213927546105
C      3.735684755117     4.298540684130    -2.133909172255
C      3.000118149997     4.772476634079    -3.236901768222
C      1.668659091903     4.349829125204    -3.419040049843
C      1.074730191938     3.454157311492    -2.505471251283
H     -0.497053055935    -0.352489795818     0.266609790013
H      3.733122246937     3.046261438835    -0.370277285000
H      4.764094904665     4.621935920223    -1.984829106797
H      3.455305474483     5.464213610942    -3.941999283561
H      1.089960292072     4.715595457696    -4.265302807317
H      0.044542888714     3.136127037652    -2.660057364680
C      1.076961520506     2.990634978992     1.667190422834
H      0.931553486775     2.300778688093     2.490647766700
H      2.053533317193     3.458197370378     1.595351602048
C      0.026229270089     3.440887604819     0.865324065160
H      0.208420555853     4.221520967564     0.142878776500
C     -1.401453963543     3.138828887016     1.074772979241
O     -2.227692552494     3.604972026728     0.247064802663
O     -1.826169602301     2.518703117741     2.263310422431
C     -3.244284442544     2.329385289017     2.382638200091
H     -3.476869245309     1.833885737798     3.347772676025
H     -3.780498940362     3.304722452050     2.358340758730
H     -3.626715857587     1.678800151396     1.561931677890
Pd     1.027084681955     1.652717114352    -0.128340312806
C      0.625410122318    -0.384337647953     2.324928814391
O      0.156606888665     0.236224116743     1.227532133134
O      1.574583874793     0.034943323592     3.018736120925
C     -0.147991268138    -1.695805610164     2.667956121056
H     -0.051158578530    -1.839549907721     3.749111413605
C      0.473114974213    -2.901056080870     1.993097222977
H     -0.091201041592    -3.816303122659     2.268568126430
H      0.438319391674    -2.776513218191     0.889658604637
H      1.529919380792    -3.017117020548     2.312116698981
N     -1.544962116648    -1.619601616533     2.250596195090
C     -2.599957929606    -1.077700906242     2.926916919501
O     -3.701064042647    -0.823277605522     2.387437882107
C     -2.424084126387    -0.806300370138     4.371735189056
H     -2.169751024891    -1.752752667914     4.877270806624
H     -1.634161788964    -0.044484767090     4.488342212305
H     -3.376637049531    -0.416663127184     4.775367063828
N      1.060287152990     0.136091452935    -1.635793322402
C      1.954623801968     0.158430741286    -2.675792348602
C      1.803767398478    -0.701982040132    -3.744619645193
C      0.757906336141    -1.596040559350    -3.782528335703
C     -0.110318434563    -1.623060808703    -2.725990636342
C      0.077691009319    -0.734068798932    -1.644091052297
H      2.791496321579     0.845129648658    -2.662973694442
H      2.509966252487    -0.665429751370    -4.557530333744
H      0.630784303751    -2.270271251057    -4.625201414866
H     -0.940644352294    -2.298366853416    -2.683551052362
O     -0.792151549475    -0.864903082383    -0.668814146674
H     -1.733529213462    -1.719204392582     1.254532900365

