# STO-3G

title

0 1
C      1.762703479562     2.988816012137    -1.503489597060
C      3.084370995083     3.462709554818    -1.655825043683
C      3.405316047266     4.341653020923    -2.713496468349
C      2.410817451713     4.757603227245    -3.618659068181
C      1.091012832673     4.288328659485    -3.463826924089
C      0.766740296940     3.405692249387    -2.413346542127
H     -2.022479494239    -0.158859673467    -0.319322468423
H      3.868193209990     3.154352192678    -0.966011810155
H      4.427069978389     4.700338264053    -2.823405534164
H      2.657756625866     5.438532367493    -4.430085462204
H      0.313595208496     4.605904421261    -4.156615362696
H     -0.255509323214     3.046528219377    -2.308514287326
C      1.831059324223     2.981224653566     1.691532616454
H      1.837777935192     2.289923086133     2.528702571204
H      2.782473389038     3.434857067036     1.431715714731
C      0.655797041687     3.482914288337     1.122745316725
H      0.715646716449     4.290728101281     0.410048873997
C     -0.713566487409     3.203195706845     1.593597883126
O     -1.654040352855     3.909443827406     1.145265469674
O     -0.926803036361     2.269079033551     2.623303188805
C     -2.299514110145     2.052002242170     2.978581084452
H     -2.356267548564     1.304184689962     3.795699667220
H     -2.769624334810     2.994869208402     3.339897468619
H     -2.874610029403     1.666929074002     2.103772568608
Pd     1.380766591669     1.671950895568    -0.052732827974
C      1.086763138868    -0.171131685458     2.675013949762
O      1.172140826704     0.076575233053     1.382094429590
O      1.821620655146     0.254532924261     3.600265566445
C     -0.120714404354    -1.145631760322     3.005803355676
H     -0.593119213614    -0.807308247298     3.933659142048
C      0.344501664672    -2.577124695288     3.151613090578
H     -0.508249378148    -3.230307565674     3.421196138164
H      0.776362508157    -2.927049921254     2.190197394916
H      1.115465294365    -2.646304247084     3.947330558471
N     -1.001236169970    -1.047325875555     1.835387982867
C     -2.294943034667    -1.200122380095     1.615682854624
O     -2.859041959737    -0.831707158085     0.516339995907
C     -3.134568846514    -1.803805094555     2.662781608824
H     -2.789365623353    -2.836536740959     2.828041446920
H     -3.049777353195    -1.195887278961     3.576466762722
H     -4.183207574327    -1.813212009912     2.311416702678
N      0.945629595970     0.290423067827    -1.570006634712
C      1.846060686811    -0.195154502575    -2.477766910601
C      1.458655570418    -1.164452107170    -3.382592837460
C      0.163904646897    -1.640313059916    -3.385380094695
C     -0.721030837767    -1.123415130708    -2.476689287329
C     -0.284742728661    -0.126624762626    -1.572836551121
H      2.865401739934     0.172754831372    -2.476295948870
H      2.174174651561    -1.545237809682    -4.091867316417
H     -0.149311586741    -2.400197645285    -4.095988752684
H     -1.747447519648    -1.428748533366    -2.428523165909
O     -1.168402566912     0.388095386861    -0.737944020279
H     -0.447352449265    -0.580832574039     1.092582990491

