# STO-3G

title

0 1
C      1.929968055517     2.731156672089    -1.014105043806
C      3.206635201390     2.911898496744    -0.438729967544
C      4.123247810049     3.812157681547    -1.022633758887
C      3.770662351985     4.538035058656    -2.176530927095
C      2.495554273983     4.360057745445    -2.747863057742
C      1.576264561378     3.458763665765    -2.171018807629
H     -1.140615363812    -0.333417978906    -0.565732622522
H      3.499547091108     2.356721626567     0.451063716286
H      5.105618554469     3.945037736664    -0.573588774618
H      4.476925237671     5.234935984715    -2.621922346973
H      2.212155502415     4.919628389956    -3.637558375813
H      0.595648282993     3.329929715774    -2.627869714371
C      0.339173327912     2.571332193668     1.655305376122
H     -0.051519824634     1.877315539538     2.387967609436
H      1.291380269018     3.033847497193     1.893529746906
C     -0.457876126940     3.110418571626     0.640433669943
H     -0.089117486163     3.946998653333     0.067974549192
C     -1.882668892762     2.802488423727     0.412495463761
O     -2.467658006818     3.363450138799    -0.550275809899
O     -2.565317946209     1.928083221384     1.275369523068
C     -3.834363345786     1.458298717372     0.799926219254
H     -4.282212271174     0.774840612029     1.552074480117
H     -4.538649182821     2.305803281849     0.637946797747
H     -3.708527258819     0.890806343308    -0.152222452932
Pd     0.718583357848     1.366293861644    -0.202449317436
C      0.037689707371    -1.158425500737     1.398046269198
O     -0.548171483621    -0.134067771890     0.733501548952
O      1.150152980612    -1.651149561487     1.118341678143
C     -0.788486416399    -1.592299416043     2.642766543522
H     -0.180275947038    -2.283030917605     3.233262722430
C     -2.082858366161    -2.280301850214     2.269103571662
H     -2.663894879309    -2.511556647775     3.185762199951
H     -2.687867017472    -1.620799970596     1.610561987430
H     -1.867005442808    -3.223969907404     1.725953266793
N     -1.121028394775    -0.372124964569     3.383641232653
C     -0.462774844335     0.212574262559     4.422379253677
O     -0.561432944730     1.436238320727     4.689388661783
C      0.374849398610    -0.653933089043     5.277076996596
H      0.753099116178    -0.047750898556     6.120751702518
H     -0.256438063522    -1.473497980399     5.660670041137
H      1.225163269071    -1.033052489367     4.684244572642
N      0.872254622350     0.151999605389    -1.939886766441
C      1.981752740562     0.125859137770    -2.743980248296
C      1.926504655804    -0.478970739951    -3.984280654382
C      0.763286541382    -1.074184747531    -4.420698420945
C     -0.323801207059    -1.062430876610    -3.589171524084
C     -0.224316583622    -0.444020788629    -2.323216175411
H      2.904316735361     0.587602332736    -2.413686409415
H      2.802159768618    -0.482581139797    -4.611419700135
H      0.712916525200    -1.550883241312    -5.395741573264
H     -1.254363271031    -1.522258494324    -3.851482687187
O     -1.318010413472    -0.521275470740    -1.582670810784
H     -1.648485129539     0.299462668485     2.828499419841

