# STO-3G

title

0 1
C      0.456425712197     2.531586716322    -1.431765720604
C      1.498900656956     3.407625935113    -1.053937132885
C      1.706795685221     4.605761112503    -1.768540262540
C      0.878964739167     4.935636882561    -2.859119379966
C     -0.157678848005     4.060249090621    -3.235284724961
C     -0.369219180104     2.857589504962    -2.527236959032
H     -0.125576792461    -1.713807200178    -0.534813721531
H      2.145882732314     3.172429877845    -0.209450044877
H      2.509985132603     5.276149176658    -1.469171382399
H      1.037799729843     5.861461629449    -3.406993647714
H     -0.802834779879     4.306856556675    -4.076370247627
H     -1.169238600840     2.188480807025    -2.838954980397
C     -1.707421728642     1.377240800384     0.436442512690
H     -2.223830657438     2.060921793134    -0.228408780586
H     -2.114862710423     0.372860387050     0.505389416238
C     -0.759801314580     1.813651000899     1.362930849301
H     -0.414032257524     1.125491067727     2.119157361430
C     -0.429564349984     3.226598151667     1.609290264181
O      0.500464424931     3.494043682945     2.414626621041
O     -1.084129009114     4.234351318094     0.880374562031
C     -0.627699363891     5.574190241198     1.109008288542
H     -1.212796169822     6.273516686582     0.473887004806
H     -0.770969099360     5.865340319068     2.174167753436
H      0.446493481858     5.677646151976     0.835349099498
Pd     0.267764701350     0.812664271798    -0.437487712801
C      0.855616595452    -1.452529581536     1.672427610348
O     -0.010904250585    -1.047544545350     0.712622147185
O      2.095299687245    -1.483427993901     1.559528349172
C      0.124750450494    -1.868161754070     2.987423642621
H      0.788621925625    -1.617660599854     3.820917028113
C     -0.163576162097    -3.352877587675     3.020875275926
H     -0.694399512807    -3.612290968468     3.959797082372
H     -0.803659950475    -3.630674808601     2.156201554717
H      0.785372147131    -3.927074456426     2.968092720186
N     -1.148923877661    -1.150535997130     3.037374397041
C     -1.727522068242    -0.392882166571     4.002730988596
O     -2.720831833043     0.344244643674     3.780808638965
C     -1.150087901271    -0.457990414745     5.361148487794
H     -1.783035878690     0.148280212171     6.035142639035
H     -1.154190922737    -1.510737653541     5.690111941470
H     -0.129805156006    -0.038469606392     5.338599982146
N      1.236011873001    -0.233894327651    -2.018679340042
C      2.149877205763     0.350735367304    -2.857597441487
C      2.545881745519    -0.292086348181    -4.013652884000
C      2.040806110284    -1.532577355801    -4.332322651762
C      1.150710002181    -2.111200653995    -3.469637945108
C      0.777948351317    -1.428757591764    -2.290082072879
H      2.567434646336     1.320598354854    -2.620426036823
H      3.258619576315     0.183347901101    -4.666530139931
H      2.349702425763    -2.044266374066    -5.239686437154
H      0.733816061666    -3.082732284065    -3.639832546564
O     -0.058008558763    -2.092124860475    -1.516496278977
H     -1.563173217809    -1.053686932292     2.113657821895

