# STO-3G

title

0 1
C      1.307346537060     2.820508977942    -1.182697384661
C      2.570037280696     3.451401413608    -1.240169363396
C      2.900775492260     4.280658790096    -2.334020538723
C      1.973906455787     4.489311720461    -3.372776561368
C      0.714456746229     3.860436011407    -3.314841330562
C      0.381067285897     3.026625983027    -2.227315075972
H     -1.500353619702     0.373939596022    -0.368917160336
H      3.302787332068     3.303083313846    -0.448613246609
H      3.876986916728     4.760359610515    -2.369797045533
H      2.226463460491     5.131530778093    -4.213305804340
H     -0.010942748816     4.015042802983    -4.111528473927
H     -0.594638620214     2.545339509401    -2.203870760223
C      0.983016823127     3.015361962476     2.072226963056
H      0.744818207304     2.366883966027     2.907937255978
H      2.012613152631     3.353205486400     1.998184845025
C      0.001937538274     3.554521238101     1.244835418089
H      0.282563749506     4.268036297049     0.486845911539
C     -1.452147873902     3.465189666476     1.475418612462
O     -2.209076871775     4.110182925006     0.702642303203
O     -1.918166335377     3.001430884036     2.720712416675
C     -3.340358664634     3.055977433758     2.903815624067
H     -3.600758945316     2.658109733488     3.907111375944
H     -3.708102249826     4.105355345540     2.840925724353
H     -3.858066891012     2.438053961810     2.133761218036
Pd     0.952568199519     1.589339293333     0.364418887872
C      1.320205559064    -1.070912040035     1.885641586742
O      0.892422536467     0.177293371624     1.997664015685
O      2.489783381072    -1.452501742269     1.625766796340
C      0.127923011390    -2.104394278180     2.085731889027
H     -0.037620298512    -2.221321103236     3.162764896147
C      0.396998782378    -3.466469830383     1.486718247048
H     -0.502836262435    -4.107768039607     1.592361088624
H      0.652087430426    -3.367516292610     0.410468518990
H      1.248980031112    -3.947548525639     2.010831662192
N     -1.053110624629    -1.532908753569     1.415869757664
C     -1.654762138272    -0.384066733754     1.802344848887
O     -2.016065545068     0.517679434853     0.974739873438
C     -2.013301773979    -0.209651384345     3.219906190599
H     -1.925390784001    -1.159872749940     3.767823980924
H     -1.352479759056     0.568326163437     3.638029214928
H     -3.063619790681     0.126172297572     3.257256524781
N      1.081888599101     0.047277316378    -1.022285656976
C      2.320891806770    -0.419140876855    -1.371869287110
C      2.443201606068    -1.372856242865    -2.361887469809
C      1.326937399042    -1.852215415093    -3.011131328660
C      0.099989947613    -1.376014047850    -2.631492345469
C      0.013703875223    -0.404718748258    -1.609467219786
H      3.202612090787    -0.037799784847    -0.870133609822
H      3.422082760180    -1.732263851989    -2.632560349772
H      1.416832983514    -2.593340440588    -3.800668352765
H     -0.809938416044    -1.700202242168    -3.095424759582
O     -1.221893065091    -0.040376605846    -1.313841127657
H     -1.011490843244    -1.595302270993     0.398571121117

