# STO-3G

title

0 1
C      0.983510309234     2.760771499481    -0.465665314729
C      1.958471923724     3.760515601781    -0.252455519095
C      1.884606026151     4.988127856167    -0.945728303382
C      0.837977495097     5.230506885139    -1.855284557275
C     -0.136573850130     4.236434814465    -2.070875169288
C     -0.063413718454     3.007680311706    -1.382962651625
H     -0.910066790709    -1.765402759210    -1.602226990050
H      2.773060996358     3.601147633147     0.451730537616
H      2.640211257617     5.750974268444    -0.767945289086
H      0.780972474484     6.178078329082    -2.385921323272
H     -0.952756664468     4.413178428447    -2.769252530506
H     -0.828792630084     2.252980557624    -1.560490619847
C      1.191387525194     1.770336494419     2.539901400969
H      1.708638306583     2.724251289114     2.539560557785
H      1.701549287206     0.929035609524     3.001943166523
C     -0.163090427330     1.683469915336     2.209397941395
H     -0.693533291164     0.751450863551     2.354329308924
C     -1.024764185455     2.842404316265     1.916594356425
O     -2.197595674399     2.632662691216     1.511702563482
O     -0.498937211945     4.142408942019     2.011038917035
C     -1.347007368165     5.197273923552     1.537425699523
H     -0.822602371341     6.169939270806     1.652746894648
H     -1.580778027254     5.059590899894     0.457291264570
H     -2.294312177357     5.238243766548     2.121390005918
Pd     1.125184910290     0.980298952749     0.445169211187
C      1.119530432582    -1.467064135286     2.442933627460
O      1.382686483559    -0.979047628777     1.232726885431
O      1.868005479114    -1.374298969700     3.449105673853
C     -0.272423797520    -2.170985413398     2.547927107388
H     -0.684426392152    -2.008077468817     3.548076068620
C     -0.180371504781    -3.659268715521     2.292609318149
H     -1.186181961226    -4.116357954926     2.401786093058
H      0.185869432776    -3.839006566369     1.260483980801
H      0.512392658348    -4.129700176967     3.021052195728
N     -1.161044360220    -1.587409353181     1.541755790672
C     -2.460133521058    -1.287408758626     1.782187260113
O     -3.073486713184    -1.509688707511     2.854375627418
C     -3.169302756676    -0.654521400381     0.649444696472
H     -2.665923161277     0.294156206702     0.397623311769
H     -3.139056046315    -1.348624494557    -0.207564332125
H     -4.215202588936    -0.457037116307     0.947555181970
N      1.575303752541     0.131589978386    -1.416606773887
C      2.754993660041     0.436849925890    -2.041091356628
C      3.107386973636    -0.215634036299    -3.206534580847
C      2.274720246970    -1.171293682943    -3.748935097864
C      1.095801133511    -1.446265983322    -3.105094294457
C      0.786555471168    -0.746841204154    -1.911800012076
H      3.412669787366     1.186571218680    -1.616875729519
H      4.038550141683     0.027286097957    -3.691229845047
H      2.542893530691    -1.687866188856    -4.666681790358
H      0.400057570392    -2.165632834437    -3.483718880734
O     -0.396801797996    -0.993042315313    -1.298889079863
H     -0.686121736894    -1.260508537079     0.702587890474

