# STO-3G

title

0 1
C      0.947993397856     2.750658101003    -0.430707948344
C      1.851724210019     3.792051835355    -0.122911549132
C      1.747078038107     5.043279567286    -0.769172469092
C      0.740398218618     5.267953142701    -1.726777175249
C     -0.161565212430     4.231382077532    -2.039087157668
C     -0.056943390024     2.979726823192    -1.399161575055
H     -0.415786875475    -1.099531589133    -0.797428333907
H      2.635319524778     3.647469411548     0.618747803892
H      2.449065919581     5.836771843869    -0.518923414629
H      0.660725499215     6.232412684376    -2.223493027454
H     -0.942416326257     4.391187598849    -2.780777630237
H     -0.758693491213     2.188564107541    -1.659183373264
C      1.089855215462     1.667608070285     2.535823055330
H      1.623254381022     2.612015414728     2.563384345824
H      1.562175404473     0.795451547009     2.983469498213
C     -0.258512288048     1.610182057847     2.181318182932
H     -0.795827776817     0.680969522783     2.312754417744
C     -1.107091100034     2.787247640630     1.925307681435
O     -2.340808980616     2.615040390046     1.742047367861
O     -0.555166957815     4.076007580984     2.024478319384
C     -1.399640637532     5.150918324216     1.592139768708
H     -0.850411722816     6.111423407356     1.691962790132
H     -1.677792721007     5.025060778771     0.520871273482
H     -2.321697185161     5.207739722778     2.213691204511
Pd     1.062964141823     0.940388716475     0.419895650008
C      0.790705213838    -1.608017963899     2.289929034441
O      1.095766218586    -1.077105998861     1.132939313689
O      1.286048536797    -1.308589802485     3.418090828163
C     -0.386444390697    -2.647854184692     2.270572937544
H     -0.373337629055    -3.154112545580     3.241085584157
C     -0.298371563645    -3.687013926390     1.174296784313
H     -1.161005532167    -4.380782062995     1.239270774917
H     -0.310057649758    -3.196339636935     0.179310249099
H      0.644435041705    -4.262726397720     1.272615033071
N     -1.694494186975    -1.954441502464     2.184889926273
C     -2.203485876211    -1.207955649226     1.183015633265
O     -1.628477294639    -0.903580238599     0.104788839563
C     -3.586250781008    -0.707758732273     1.359462241013
H     -4.174244699412    -1.076762953288     0.500462268267
H     -4.049458607046    -1.044521456599     2.299740856656
H     -3.554711039369     0.395761803586     1.323020508127
N      1.796440266948     0.201456361699    -1.385296942228
C      2.955526659492     0.741650536784    -1.874466219370
C      3.537690675123     0.225789223330    -3.014425203277
C      2.955580367248    -0.833648418970    -3.673524859496
C      1.794969172734    -1.352979869645    -3.168761740556
C      1.228297312584    -0.797975771800    -1.997408185718
H      3.424312860881     1.571420698170    -1.359630699479
H      4.449872384057     0.658459165657    -3.388663851625
H      3.404241923196    -1.245481984606    -4.573128822002
H      1.282218871776    -2.171191508054    -3.631075587830
O      0.107629989783    -1.375412362636    -1.635447804144
H     -2.223522746633    -2.014023587927     3.042197638588

