# STO-3G

title

0 1
C      0.344350282429     2.876536404547     0.050268762050
C      1.381109428552     3.836398617967     0.114632424948
C      1.119538587400     5.191491114954    -0.179381784885
C     -0.177979870687     5.602348417307    -0.540843018061
C     -1.213302040358     4.649949662354    -0.606242987050
C     -0.954276113292     3.293736113120    -0.314868996906
H     -1.393534785326    -0.819201224720    -2.482788333780
H      2.388429482716     3.546034896510     0.412043989540
H      1.925769030202     5.920202890730    -0.120244700427
H     -0.380496141824     6.647015890755    -0.765332778564
H     -2.220364790740     4.957466942466    -0.882174348839
H     -1.766549411346     2.571831320695    -0.378884500096
C     -0.487844928335     0.832009759666     2.214620706313
H     -1.262735234309     1.590372532869     2.157877767274
H     -0.825574765187    -0.195249177711     2.128615385060
C      0.812676873957     1.117979372553     2.638701068952
H      1.502755740563     0.301713283037     2.812003818151
C      1.246261268922     2.438064618216     3.128330844476
O      2.475038442240     2.643826597057     3.304114134670
O      0.301631648694     3.469422714413     3.270686343370
C      0.821028520728     4.751091554342     3.650298016764
H     -0.015724310698     5.478609191930     3.723876356457
H      1.326019859774     4.696533142374     4.641255334399
H      1.538692757029     5.128732316861     2.887511580353
Pd     0.767099181060     0.941722828603     0.364647018125
C      1.114611285421    -1.961829896592     1.489310534690
O      1.289507331293    -1.112503979176     0.478444519466
O      1.839062363464    -2.043860765187     2.513242342184
C     -0.148688825444    -2.870385300104     1.325166314448
H     -0.547766355223    -3.114799684898     2.313471680685
C      0.160445807418    -4.151733630599     0.583968020382
H     -0.761363299990    -4.764864217304     0.503345764609
H      0.526312846002    -3.915461362252    -0.436855461503
H      0.934095219170    -4.730490125318     1.130353431700
N     -1.155665896212    -2.132171081824     0.559119061666
C     -2.428450835046    -1.955973439264     0.988723867030
O     -2.928234974510    -2.445178859954     2.030717549565
C     -3.262328332994    -1.096154589923     0.120807853002
H     -3.315722850919    -1.565881531202    -0.876762654309
H     -4.273146812396    -1.026429218342     0.561353387541
H     -2.802410858850    -0.095169133283     0.051226731652
N      1.197597015019     0.752993298925    -1.680217616087
C      2.382090600348     1.217512346834    -2.185332281031
C      2.702655225245     0.990648602838    -3.509886132749
C      1.836374970059     0.296030201022    -4.327177394584
C      0.659115887701    -0.157761326575    -3.789611527047
C      0.383629447438     0.105076567112    -2.424342435790
H      3.065776210130     1.762715202700    -1.545353941115
H      3.636468354240     1.359314529298    -3.901255673273
H      2.081029723063     0.112532343982    -5.370005191369
H     -0.053287614146    -0.703417834528    -4.372114371774
O     -0.780616143936    -0.344975663258    -1.890443795029
H     -0.772186926116    -1.544888273776    -0.179146480350

