# STO-3G

title

0 1
C      0.098051397543     2.505040361364    -0.779266688860
C      1.152581870496     3.245873278769    -1.353436610588
C      0.870158858567     4.221834196488    -2.332648914832
C     -0.457742070259     4.455688401261    -2.738786182493
C     -1.503511691059     3.703797926350    -2.169011269894
C     -1.232597283325     2.723686640931    -1.190488360701
H      2.101160956733    -0.798747339756     1.341508375595
H      2.184054471955     3.077142796324    -1.046787414165
H      1.686596243355     4.792898947384    -2.770765312156
H     -0.674125686462     5.209870945736    -3.491989735963
H     -2.531078502156     3.870988319796    -2.485810794484
H     -2.043462751026     2.122580335621    -0.787196832005
C     -0.703571426007     2.052960320408     2.177794155943
H     -1.532030651730     2.586440150609     1.724134147315
H     -0.947666306328     1.164757270522     2.750879204792
C      0.574370887234     2.609512978002     2.286002354411
H      1.324934858485     2.081188401563     2.858303043547
C      0.911377519562     3.990660925117     1.899319050291
O      2.111731769897     4.362988685116     1.958783261993
O     -0.103033433479     4.849979973509     1.441440957936
C      0.328530065265     6.131752635189     0.965130257544
H     -0.554252766766     6.711161930685     0.619744718733
H      0.831397652248     6.707247841233     1.775010350311
H      1.024009350562     6.018029361682     0.103012410148
Pd     0.517694863915     1.105336059273     0.578933217604
C      0.335263211831    -1.060900425547     2.992395567382
O      1.141569483134    -0.330993907848     2.190996857542
O      0.132379094160    -0.808711625751     4.196437869831
C     -0.432846779131    -2.229376342461     2.279686118648
H     -1.269946456473    -2.503677342681     2.929272349896
C      0.429821019981    -3.457729013340     2.088523951162
H     -0.145545721345    -4.244089905178     1.557184063267
H      1.333735673680    -3.205851178533     1.493792928992
H      0.753989524604    -3.850444255405     3.074912006403
N     -0.894162638921    -1.790175843495     0.959634600463
C     -2.022364561754    -1.103342964016     0.632897303055
O     -2.132359392147    -0.442500581701    -0.432282895858
C     -3.162543825504    -1.165095018056     1.570949564999
H     -3.445985415462    -2.224264457859     1.699968291034
H     -2.868739090648    -0.705935167969     2.529527135024
H     -4.011538677274    -0.605882385263     1.134815786462
N      1.211876260150    -0.206620449044    -0.953543690459
C      0.717191313348    -0.150630809845    -2.232806089791
C      1.313968502013    -0.883939144899    -3.238601323929
C      2.408463276338    -1.676553737110    -2.975764178814
C      2.869076220984    -1.740496386642    -1.688792739719
C      2.230445058436    -0.986052616651    -0.680632088725
H     -0.151114813073     0.453783559230    -2.460695683750
H      0.917888499586    -0.826067033564    -4.239073412167
H      2.884961012684    -2.248959449681    -3.767068350395
H      3.704614087618    -2.349556532917    -1.407880724777
O      2.714378970842    -1.164945348321     0.527278352479
H     -0.163944886689    -1.667262858856     0.261404190989

