# STO-3G

title

0 1
C      0.166750516681     2.336867764300    -1.047961680734
C      1.103328305625     3.150945992602    -1.724745222733
C      0.717371288166     3.870934758329    -2.875281309893
C     -0.601939904161     3.782603301603    -3.359218805849
C     -1.533986495060     2.966939886895    -2.689339451327
C     -1.152022048511     2.242657312484    -1.540045665289
H     -0.762233698546    -1.183162928374     0.677905343602
H      2.126566847796     3.245392528145    -1.362335476509
H      1.445709992993     4.496929784257    -3.386802625759
H     -0.898975925160     4.336914787644    -4.246242672694
H     -2.553893046265     2.885257180015    -3.059788126443
H     -1.882060586085     1.601105851089    -1.049886807635
C     -0.512261827410     2.429785002250     1.995263631404
H     -1.378219762166     2.822208966112     1.471398432727
H     -0.691063754890     1.645279859496     2.723066891640
C      0.733055231430     3.057876234342     1.979892359852
H      1.516167334905     2.673558423368     2.618233176169
C      0.995037838972     4.358724575309     1.340500525188
O      2.183339719094     4.762969270333     1.258547855020
O     -0.069446221587     5.080588127309     0.774172746622
C      0.285109945024     6.286813185141     0.084046138965
H     -0.633720019935     6.759041913136    -0.325573951208
H      0.772663589170     7.011114198863     0.775215533841
H      0.967935954866     6.069175185735    -0.768017374159
Pd     0.765218205571     1.277108363281     0.544860732620
C      1.777872113601    -1.018439974398     2.479011631941
O      1.417101522444     0.258708327715     2.308506693932
O      2.944623885595    -1.464671949731     2.450225452756
C      0.554586392353    -1.957523333658     2.807972426021
H      0.547347871627    -2.140045841268     3.892126685258
C      0.623615681669    -3.292764012360     2.099828263388
H     -0.248489084425    -3.919078497447     2.377601629409
H      0.618248459372    -3.147835486311     1.002687721944
H      1.551205189496    -3.828911785143     2.388498292374
N     -0.676189483470    -1.229208971793     2.404107687490
C     -1.930757707713    -1.584895307596     2.870765312934
O     -2.213343462724    -2.643803505541     3.454557030118
C     -2.998907293247    -0.604207597878     2.575480456904
H     -3.963484317703    -1.039842024872     2.895928326495
H     -2.803635562287     0.321428134735     3.137707582584
H     -3.018689475885    -0.432025663839     1.483270539317
N      1.168226215600    -0.267371158912    -0.812170609375
C      2.282543665769    -0.149794821116    -1.600139342849
C      2.455300537508    -0.986881718006    -2.683441031430
C      1.514835080584    -1.950085707400    -2.976847640708
C      0.421251926969    -2.058682593783    -2.159556468141
C      0.290154879076    -1.189763112321    -1.055035170626
H      3.021146421482     0.611847817046    -1.379463496583
H      3.330994344369    -0.882148875681    -3.302269161363
H      1.641543796088    -2.612121420944    -3.829145077229
H     -0.341803151955    -2.793819371318    -2.317216441928
O     -0.791491445566    -1.411179943311    -0.317625951526
H     -0.447006394583    -0.229410508027     2.389872475304

