# STO-3G

title

0 1
C     -2.432052198814    -1.422328996504    -1.173317289222
C     -1.213170344583    -2.155079104199    -1.150348411494
C     -1.111231338433    -3.352085399962    -0.425723445665
C     -2.222656511494    -3.837030640775     0.302437437640
C     -3.428119933039    -3.117485497969     0.305105629276
C     -3.542667125664    -1.914669386625    -0.434546591236
H     -2.530989002426    -0.565334196269    -1.833447698234
H     -0.360158745341    -1.782775344857    -1.711191318550
H     -0.176636029828    -3.907856548911    -0.423995813843
H     -2.142615087757    -4.766781309303     0.860516735340
H     -4.285417016659    -3.484937248153     0.863720956745
H     -4.504343286412    -1.413985146731    -0.492363711308
C     -3.845478414112     1.501457095928    -0.644538503072
H     -4.687253293919     0.824421788536    -0.758530109943
H     -3.276434544700     1.742522262851    -1.531661792286
C     -3.599821600314     2.195943269123     0.522022544102
H     -2.850079839961     2.972043106607     0.530777483217
C     -4.354794841611     2.018271984216     1.769135639197
O     -4.844344399370     0.879290656314     2.004898407142
O     -4.193817905106     2.963223248662     2.795056056158
C     -4.860764957110     2.670045240845     4.030529456583
H     -4.678287271316     3.496924002835     4.750655516959
H     -5.960212835230     2.581352839071     3.876326193625
H     -4.469565872333     1.728802607816     4.478456636513
Pd    -2.318575115858     0.157239137679     0.627185909790
C     -3.582820566956     0.954886354215    -4.591829706710
O     -4.199794137948     0.947478458578    -3.571666030912
O     -3.014833823530     0.936562707010    -5.640742726853
C     -1.011479110268    -0.482753794814     2.222628205693
H     -0.124179344273    -1.066075025039     1.975653598812
C     -2.012136756076    -1.064760409865     3.167355759473
H     -1.560853093716    -1.123425429580     4.178116958485
H     -2.917824118908    -0.426204729295     3.221862497190
H     -2.296587478821    -2.081795072840     2.831761257997
N     -1.078837876467     0.876447391753     2.134571624915
C     -0.192972297402     1.864252543367     1.956833435603
O     -0.233922850766     2.741205054495     1.037162008427
C      0.841782837406     1.987834809730     2.999890091238
H      0.327338729090     2.116929079668     3.968248549159
H      1.451482908594     1.070330507840     3.001100514865
H      1.471132449723     2.871456500685     2.785150586026
N     -1.014738852585     1.028971889310    -3.194320008401
C     -0.299861881504     0.210125966727    -4.026780651023
C      1.006250741709    -0.126243744137    -3.713030153991
C      1.612064028209     0.388103802220    -2.588645317930
C      0.881153733836     1.214355582389    -1.773829267769
C     -0.456567216709     1.527731960012    -2.142984384677
H     -0.764895721198    -0.197248376338    -4.916315047006
H      1.555039644409    -0.770395189459    -4.380165682287
H      2.648179343146     0.152989893450    -2.360443368474
H      1.324226708892     1.689857712007    -0.923084316190
O     -1.122721727266     2.386541804158    -1.356149557953
H     -0.766098575962     2.550755932417    -0.416402161973

