# STO-3G

title

0 1
C     -1.569581989327    -2.405441178634    -0.585356518882
C     -0.436075051745    -2.952878218310     0.073527949227
C     -0.600827339925    -3.919570580819     1.076285946556
C     -1.898625399000    -4.341597495841     1.453180530050
C     -3.026775389541    -3.794958533633     0.822840110136
C     -2.872696354633    -2.832472759373    -0.208133643916
H     -1.425755670756    -1.738061956560    -1.428936827223
H      0.554358750112    -2.609433345897    -0.210833801453
H      0.270979622154    -4.344060077759     1.568452643386
H     -2.020709586660    -5.090742883508     2.231709803111
H     -4.025130761115    -4.117661238832     1.107798236881
H     -3.744026567415    -2.492025823284    -0.760496876131
C     -3.141931042967     0.434264966430    -1.328025722151
H     -4.057423413507    -0.136592244211    -1.459276883936
H     -2.365157029410     0.298721714084    -2.073272556454
C     -3.039697696012     1.483186874961    -0.429460302059
H     -2.173940256648     2.120808806044    -0.450408967779
C     -4.099031922513     1.869633828386     0.515054597733
O     -4.947322761804     0.984765887466     0.825580706476
O     -3.893023203035     2.982011105588     1.346891642856
C     -4.928080096273     3.257185175559     2.298998373188
H     -4.663167164561     4.174218978190     2.867883116513
H     -5.898592286790     3.438366528816     1.784262210106
H     -5.034709532188     2.417401919860     3.021387897886
Pd    -2.306059685433    -0.488801162069     0.671431642550
C     -2.404006190424     4.631161628597    -2.374170437186
O     -3.180011383600     3.986613046023    -1.739475835207
O     -1.646134955953     5.272102204098    -3.036318222003
C     -1.771758052356    -0.670000778475     2.750236136505
H     -0.920285021850    -1.304442338479     2.999982928516
C     -3.069218754187    -0.914537714969     3.449537256335
H     -3.001349599147    -0.519116544362     4.483186777044
H     -3.893307149009    -0.388725616229     2.923255646049
H     -3.279712695224    -2.002381482008     3.480215728055
N     -1.648227718632     0.612367520001     2.310840040883
C     -0.702510516708     1.556777625368     2.236811354305
O     -0.329534343048     2.147678491977     1.176174788122
C     -0.154085326573     2.004051261888     3.530062445710
H     -0.997408084722     2.371988400689     4.139595336555
H      0.341012640670     1.148194506280     4.014692176940
H      0.568463539779     2.821623527981     3.350157213837
N     -0.399321249320     1.992745427256    -2.576355723120
C     -0.471814059660     2.198795676295    -3.928559250913
C      0.018558677348     1.242150620937    -4.801898954990
C      0.603643144533     0.090228516166    -4.323824888547
C      0.671749121125    -0.088699627292    -2.966266760965
C      0.158591393359     0.922213705031    -2.120206426762
H     -0.926869345177     3.100958154039    -4.316871107611
H     -0.046862588673     1.418747409315    -5.862764723071
H      1.004637141654    -0.654190638886    -5.006293301510
H      1.137907401591    -0.945672209317    -2.526950252190
O      0.285432879963     0.630820546478    -0.820315100772
H     -0.028265115150     1.328085614506    -0.149721206409

