# STO-3G

title

0 1
C     -1.575451690945     0.362913808597     2.041000188192
C     -1.530041173033    -0.989226565259     2.469007970492
C     -2.707957812267    -1.623933701447     2.916111355120
C     -3.916982778035    -0.908019483774     2.962744413483
C     -3.963477857003     0.445841569683     2.553869497150
C     -2.800730632886     1.076898636116     2.089969869368
H     -0.657513292477     0.916048712196     1.845782922664
H     -0.576120247332    -1.506394374299     2.467060952371
H     -2.673132558695    -2.659558977902     3.243198339086
H     -4.823463891818    -1.389940719545     3.321264771366
H     -4.901384857797     0.993848620763     2.593880379638
H     -2.828304073246     2.123255172194     1.794536541692
C     -1.962057038713     0.958698847496    -1.349966848502
H     -2.455761385573     1.643640582417    -0.668844025111
H     -1.254796667938     1.401009624868    -2.043761742756
C     -2.365380160380    -0.373453201950    -1.481742190039
H     -1.927681373299    -0.967187660727    -2.267959277638
C     -3.558743104038    -0.962928381503    -0.851362280881
O     -4.451570654490    -0.213250441089    -0.377256480802
O     -3.737139311115    -2.353968623953    -0.935081539421
C     -4.935070234766    -2.866395083821    -0.334578963648
H     -4.966171889303    -3.970600426720    -0.455780160811
H     -4.962247408026    -2.634446557775     0.754113418452
H     -5.838703550817    -2.437921288779    -0.825272061823
Pd    -0.504138751808    -0.233674856641    -0.128685917545
C      1.767611413212     2.683355803646     0.621323868013
O      0.691244383336     2.129065030056    -0.044738710830
O      2.375109173975     3.686073327319     0.225939011879
C      2.117046116795     1.817619937951     1.862453969610
H      1.171360751406     1.538539821031     2.352640375386
C      2.999842410425     2.543966617104     2.847165360825
H      3.207043809234     1.884231932055     3.714587006675
H      3.963011673018     2.798030094098     2.356138621963
H      2.505752030295     3.472919453112     3.198281113463
N      2.881748882408     0.660393171770     1.383131010653
C      2.340659696275    -0.444139061291     0.997166460210
O      1.036266696489    -0.828767885960     1.050921424819
C      3.276755733782    -1.483011574841     0.536834062277
H      3.071005416478    -1.683481970772    -0.524881145999
H      4.313978873281    -1.115734947783     0.650440860990
H      3.123809639858    -2.384119147080     1.153823542359
N      0.526899274529    -0.756535841958    -1.782383244013
C      0.760409374848    -2.087854045552    -1.984136320183
C      1.547680992600    -2.490656661177    -3.038941197986
C      2.100196798075    -1.565258845821    -3.896982548940
C      1.860111513450    -0.235258404072    -3.672200313223
C      1.064386101682     0.173023967433    -2.575085267573
H      0.321033268250    -2.821194470420    -1.317727732419
H      1.726081025799    -3.541915762172    -3.196872066371
H      2.718212133703    -1.882942757728    -4.732726475553
H      2.274528952750     0.529523240374    -4.298985451710
O      0.908993139271     1.433943955856    -2.428003492727
H      0.760632138306     2.052630792092    -1.081036314656

