# STO-3G

title

0 1
C      0.559553830595    -2.110667921286     1.600315595739
C     -0.383193136250    -2.177638617734     2.645542227318
C     -0.060210777127    -2.855024708293     3.837878476393
C      1.200918804021    -3.468511157925     3.984259604887
C      2.140086816939    -3.407608403024     2.935327912143
C      1.818115664317    -2.728422252398     1.742738206921
H      0.298936412086    -1.594141447693     0.683545795658
H     -1.354120211245    -1.709956691162     2.510727300241
H     -0.787089827563    -2.908864430452     4.645737017536
H      1.447361769968    -3.993286560049     4.905084994507
H      3.110419058485    -3.887437626357     3.045458170842
H      2.538064686524    -2.689778732904     0.926973371733
C      1.965642112087     1.037693311034     0.889744551767
H      2.778543306053     1.757457403499     0.811097482626
H      2.225163091050    -0.011355570253     0.823461211700
C      0.677286538668     1.406521665921     1.248441757001
H     -0.072012234999     0.661765724278     1.466091284220
C      0.258611310402     2.799929087062     1.476554542592
O      0.899168834684     3.721146317106     0.901335465258
O     -0.932693454438     3.057591696390     2.172494705408
C     -1.364946109881     4.424731221440     2.194524063656
H     -2.312392257276     4.499798483299     2.770499758447
H     -0.605217236195     5.073893637531     2.685545259748
H     -1.559359212714     4.793017503624     1.161392029065
Pd     0.948918923496     1.381217538390    -1.130474104052
C     -1.892220205526     0.283616559876    -0.554867802126
O     -1.776632424533     1.645651022035    -0.522284014445
O     -1.945769318239    -0.368123279700     0.501753530220
C     -1.886291228433    -0.386275528693    -1.967829019112
H     -1.701372120368     0.388559284645    -2.721793328251
C     -3.230596057079    -1.006577606902    -2.265826438211
H     -3.227262163357    -1.423552792902    -3.294551514905
H     -3.416741404609    -1.835772144714    -1.550658737923
H     -4.038053980639    -0.250096129556    -2.181705611941
N     -0.910666229644    -1.469721229695    -2.092382348059
C      0.345381738072    -1.477208428369    -1.888611616823
O      1.259832082286    -0.561714270609    -1.412915930872
C      0.995379476719    -2.768900582409    -2.173448229233
H      0.530723107792    -3.524577613603    -1.515501906702
H      0.796881636700    -3.016996233206    -3.229635188687
H      2.081782815853    -2.710451282275    -1.983529941285
N      0.734034626023     1.644910795482    -3.111147928248
C      1.626292459421     1.151330210504    -4.020032369024
C      1.474295040958     1.453545197579    -5.356147027285
C      0.430468934133     2.245286550986    -5.785741300955
C     -0.466072854934     2.713556199706    -4.859812710777
C     -0.307524523221     2.384366570336    -3.494006299242
H      2.456968350573     0.539141960261    -3.688236532595
H      2.184655938155     1.068906416587    -6.069497578235
H      0.315043238553     2.485870097297    -6.839311639534
H     -1.305570090710     3.318822979201    -5.137194722850
O     -1.208921268914     2.801253271030    -2.684737362341
H     -1.624465945824     2.134771981789    -1.430152637607

