# STO-3G

title

0 1
C      1.016542156052    -2.428035382606     1.537216365428
C      0.043003346988    -2.574571846157     2.548084628288
C      0.365447633682    -3.258185675646     3.737416881636
C      1.655960380673    -3.795388499029     3.918118309803
C      2.627403916492    -3.651873716464     2.907075299158
C      2.306301260826    -2.969292407813     1.716686070954
H      0.769008509251    -1.907487945509     0.615783428200
H     -0.950792016562    -2.159674532633     2.399963392988
H     -0.385945627364    -3.374118003436     4.515235799149
H      1.901312796585    -4.324750810422     4.836386011857
H      3.621834471532    -4.071218093548     3.044405575988
H      3.053783061489    -2.865199136133     0.932483700032
C      1.195705465781     1.147885136602     1.463635612207
H      2.179137996756     1.563648055416     1.671514602432
H      1.091032765251     0.075203687555     1.577605295388
C      0.072291110154     1.944617913823     1.282747358090
H     -0.906214329442     1.487189880799     1.246055975515
C      0.089541445524     3.416830675077     1.284138280586
O      1.174226814446     4.004780472852     1.028926644553
O     -1.133273840718     4.104276552483     1.287551983426
C     -1.058199447812     5.525396208984     1.106697396956
H     -2.083726783532     5.953681059257     1.135340074020
H     -0.460554291110     5.998834972995     1.918293035882
H     -0.609092344246     5.775404021701     0.118391864477
Pd     1.039575818892     1.463856134692    -0.808939944737
C     -2.990247760608    -0.650433747198    -0.099312298615
O     -1.875815992159    -0.556008979517     0.709233203339
O     -4.106738749210    -0.871628910672     0.377345964550
C     -2.699555702722    -0.362528934323    -1.621464386544
H     -2.443922485408     0.709916514618    -1.682623466252
C     -3.908373135500    -0.627420698358    -2.483277276285
H     -3.685067491235    -0.338814086556    -3.531539370200
H     -4.149497156183    -1.709572733473    -2.453265617247
H     -4.778331886913    -0.039237116615    -2.124742592505
N     -1.603918198912    -1.144973853109    -2.207756072098
C     -0.364871049517    -0.998935673779    -1.934515432710
O      0.135158024520    -0.330984302180    -0.831776334135
C      0.601206586092    -1.724431139377    -2.762876209316
H      0.332114907691    -2.794725379592    -2.729650324358
H      0.500382278457    -1.342720555484    -3.793991484854
H      1.621744904941    -1.562188997767    -2.378356398454
N      1.309549540994     1.586773335853    -2.786247729807
C      2.426532453923     1.229495764039    -3.486382327138
C      2.372929934163     1.133075015434    -4.859421471117
C      1.209183689281     1.411395900509    -5.545009409734
C      0.090567205264     1.759452587694    -4.835554847677
C      0.135555579229     1.829872495324    -3.422450601535
H      3.352821569123     1.028494052327    -2.961128195056
H      3.259866864345     0.855999993802    -5.405522021161
H      1.176005202585     1.344525206384    -6.629285948459
H     -0.848831261351     1.959384340186    -5.310786068333
O     -0.933105843485     2.089914203181    -2.799731026825
H     -1.020515966887    -0.433811578968     0.173764574949

