# STO-3G

title

0 1
C     -1.357670707716    -2.674377576492     0.230002531343
C     -2.226551451182    -2.455038053250     1.318105397784
C     -2.414035488819    -3.457146470018     2.290594170839
C     -1.733052607335    -4.685012299694     2.174508529431
C     -0.870618127851    -4.909234746879     1.082869160849
C     -0.684634727213    -3.907720123873     0.109581021257
H     -1.208422992510    -1.911245119245    -0.529910149001
H     -2.765585815954    -1.513429776818     1.410787769215
H     -3.087141222718    -3.283948426766     3.127466881943
H     -1.876927852221    -5.460004500838     2.924295399713
H     -0.345603680845    -5.856906369947     0.988042304571
H     -0.013841834157    -4.077401860093    -0.727879675617
C     -0.951193219625     0.690899565221     0.523929546491
H     -1.804958343496     0.197474893665     0.069090469932
H     -0.175288137760     0.064132359367     0.965825672671
C     -0.930574561093     2.089520412227     0.724552892884
H     -0.109534868755     2.506750678857     1.288586814001
C     -2.071596109051     2.993098175187     0.504556608363
O     -3.120863967315     2.560281629452    -0.041130334059
O     -1.912415748773     4.358771751706     0.792892960724
C     -3.057496947730     5.189265919830     0.552493141754
H     -2.814698318529     6.239123189652     0.825250687284
H     -3.345730154292     5.167225982157    -0.522899631793
H     -3.921840013591     4.860842254096     1.173621015915
Pd     0.330761347670     1.450371938830    -1.063435212425
C      2.072365378948    -1.857270254227    -0.846221996100
O      1.362564000522    -0.872137812804    -1.472753732456
O      2.226397769574    -2.997943463915    -1.317005789849
C      2.682611873949    -1.402917986917     0.524754846693
H      3.781968937373    -1.479178067501     0.408092146836
C      2.258251948175    -2.318698928243     1.648655024564
H      2.730745253064    -1.985284981878     2.594964806982
H      1.155565201144    -2.274227593782     1.771050177945
H      2.561523979818    -3.364652024461     1.434555369196
N      2.139779183162    -0.093735880379     0.802408810804
C      2.641194544914     1.027031721272     0.437127201236
O      1.843932344158     2.070864628901     0.115017882902
C      4.094381213112     1.250317252911     0.280515496107
H      4.266648270236     2.318290515391     0.056022547194
H      4.579583594733     0.981326736560     1.234083666870
H      4.464610680282     0.627518702846    -0.551278862114
N     -1.103992400902     1.142094063184    -2.479334069257
C     -1.885082841930     2.215406988244    -2.815190821660
C     -2.875803876674     2.085642478123    -3.763249514969
C     -3.108574978758     0.876352241482    -4.375453167862
C     -2.319837947147    -0.189130445271    -4.037753891932
C     -1.298339810011    -0.040668363631    -3.070069741016
H     -1.712622291539     3.176247407512    -2.345625904059
H     -3.486216443489     2.938135893265    -4.010527564306
H     -3.898537148497     0.770325854753    -5.114153582115
H     -2.450675499604    -1.154975751246    -4.483391384642
O     -0.612033447708    -1.094014854843    -2.833328484588
H      0.552073366872    -1.109813742349    -2.144561588158

