# STO-3G

title

0 1
C      0.050997447913     3.211713024795     0.389442991639
C      1.306388893497     3.856307730327     0.148749498698
C      1.568225317038     4.474920857044    -1.102114633364
C      0.600395336880     4.445926677263    -2.112637930753
C     -0.637343251045     3.786283879744    -1.896305681743
C     -0.909824110629     3.170711602514    -0.670611770279
H     -2.590265418104    -1.937670126145     2.287332479955
H      2.012068373751     3.984049607326     0.967593804808
H      2.517998133241     4.979604903018    -1.259813671207
H      0.793357741969     4.932775403910    -3.065831913668
H     -1.380782985036     3.757458017563    -2.689076935236
H     -1.850530414090     2.655972988202    -0.494093444931
C     -0.286449023919     2.661066830224     1.786874901652
H     -0.090939176836     3.416739763544     2.555349955373
H     -1.342852420976     2.395202536280     1.803791112391
C      0.579315484154     1.389336068904     1.932777205175
H      0.013542878510     0.459768561254     1.904582586221
C      1.689494252465     1.332683968944     2.905847138900
O      2.004846496917     0.225834263322     3.410525607147
O      2.444812332842     2.491907276841     3.151575563640
C      3.536710531628     2.344422647594     4.070821296273
H      4.054477327515     3.320725003321     4.189778491139
H      3.171226533623     2.021181785670     5.072199789655
H      4.276859979452     1.602730065649     3.692206820292
Pd     1.353550403762     1.397030441846     0.027353957068
C     -1.274099699334    -1.632497547212    -0.435416909385
O     -0.330139561081    -1.512298870919     0.528572281061
O     -1.056129867085    -1.627067499820    -1.661726442933
C     -2.671629224258    -1.871452251812     0.194361514399
H     -2.764661290835    -2.960951823016     0.308929385342
C     -3.810019775762    -1.401962678903    -0.688564717749
H     -4.776395970716    -1.561459055099    -0.167340829160
H     -3.697389997995    -0.323657894225    -0.919704600545
H     -3.813714886661    -1.972106602051    -1.640513515352
N     -2.807931869960    -1.296253793169     1.534403435843
C     -2.821920696455     0.028499352152     1.828479091948
O     -2.796419482486     0.968819246051     0.997459201601
C     -2.895354770934     0.341556089933     3.273781895940
H     -3.797428878835    -0.150164798997     3.676430552524
H     -1.987547391508    -0.059699478103     3.754936554513
H     -2.964351148282     1.434725233257     3.410126871875
N      2.146955945869     0.718765247060    -1.961362434237
C      2.437202867575     0.967249195994    -3.272863380601
C      2.843686576535    -0.071260141313    -4.092807542292
C      2.947213559485    -1.359773139990    -3.600741656113
C      2.649883776972    -1.583199860439    -2.279450483538
C      2.241705487859    -0.491294748727    -1.488836289762
H      2.351071332948     1.974409947336    -3.663978087178
H      3.067582228501     0.128242572441    -5.127543093929
H      3.254830240374    -2.177850501629    -4.246471669722
H      2.695040493751    -2.554980273878    -1.832475590063
O      1.920182206436    -0.692693130563    -0.216332109282
H      0.630227988690    -1.302010210971     0.189461470846

