# STO-3G

title

0 1
C      1.492500463965     2.461555855449     1.323365906207
C      2.626697046906     1.618201812009     1.100699603633
C      3.679372143373     2.048646005950     0.287473267283
C      3.634225781426     3.322893135013    -0.336345168572
C      2.527382666460     4.158359433041    -0.150598617909
C      1.448815077288     3.735569736679     0.671302042568
H     -1.452839535933    -2.250062164713     1.878842392514
H      2.655799049851     0.648356325214     1.592380826514
H      4.540355718595     1.402298757915     0.136241856447
H      4.467353012163     3.650674634838    -0.953612823584
H      2.488613824538     5.138208560713    -0.619419671042
H      0.651060155830     4.436354562529     0.911762686325
C      0.388198405535     2.060758352174     2.315996700532
H      0.713945619095     1.175629734953     2.862017655332
H      0.209488018546     2.868620926083     3.033789992953
C     -0.839294838303     1.740607911081     1.431182182766
H     -1.079273570223     0.680912326368     1.362908863929
C     -2.054390018658     2.578465736519     1.491770497708
O     -3.173506829110     2.053719984941     1.266146403208
O     -1.919675686378     3.962747340357     1.692154882893
C     -3.140410920982     4.717016804299     1.689125069119
H     -2.912076481454     5.791384017916     1.859663105291
H     -3.661815593957     4.624309683174     0.708859495764
H     -3.820950388047     4.373750805347     2.501481984803
Pd     0.065245039121     2.025457834795    -0.395648071771
C     -0.009968656964    -1.812540828621    -0.459723280077
O     -1.168213510100    -1.120536563612    -0.317254371333
O      0.725676065454    -1.789932651845    -1.463944409850
C      0.318072452012    -2.646429201906     0.801422684614
H      1.383142116871    -2.504869117806     1.008902239213
C      0.052439998592    -4.121435288623     0.593838738359
H      0.356194195324    -4.682037870388     1.502060898055
H     -1.031983711191    -4.280426966952     0.423315707381
H      0.628426395886    -4.498252736360    -0.276718438947
N     -0.443398590630    -2.209251121095     1.965565894410
C      0.105500723321    -1.424311195168     2.924126808642
O      1.291270099049    -1.006148557468     2.928306839067
C     -0.799778612293    -1.061396103175     4.035326545679
H     -0.244427879839    -0.442768181889     4.761328938713
H     -1.654642121657    -0.505817482246     3.615539725189
H     -1.143513340740    -1.996784989106     4.510419112279
N      0.594437159529     1.869616545656    -2.567982015769
C      1.469258770723     2.088415157752    -3.594060057980
C      1.204325018281     1.557185189867    -4.844518578218
C      0.069785562543     0.796547545126    -5.062138516685
C     -0.792231162380     0.589664147541    -4.014021932599
C     -0.475278119322     1.153388413404    -2.762712000911
H      2.362426640426     2.679077760687    -3.426203201560
H      1.898510508211     1.729263692510    -5.650246055039
H     -0.133500534158     0.369823402086    -6.040643156244
H     -1.682992923509     0.002633624320    -4.104665147635
O     -1.280177062311     0.938292439174    -1.727992601238
H     -1.315936574278    -0.361419727197    -1.014273860173

