# STO-3G

title

0 1
C     -0.394558283568     1.308312005100    -2.173391366191
C     -1.616881477914     1.957947636963    -2.439515384426
C     -2.537871350066     1.384474403536    -3.339732136126
C     -2.236987162839     0.158463404520    -3.968504982746
C     -1.010810271076    -0.486860871906    -3.705858522042
C     -0.085898394759     0.091159732223    -2.813360615767
H     -1.278204548859    -0.228890385932     2.844493323336
H     -1.837250822820     2.908964826569    -1.959069446921
H     -3.475806173596     1.891204519667    -3.556947923942
H     -2.945668375874    -0.283366924362    -4.665788738647
H     -0.772560480333    -1.423785038412    -4.204702229044
H      0.880106367726    -0.367041351090    -2.621069404753
C      1.167474741438    -0.972566911225     0.831015539369
H      1.874649850990    -0.811457406206     0.022776433269
H      0.303320159512    -1.596728994900     0.626757988472
C      1.426094337700    -0.577556405420     2.149286127827
H      0.738959177547    -0.865187951138     2.931291468704
C      2.711836137163    -0.038240619772     2.625517836585
O      2.768261785863     0.456542919684     3.782623378592
O      3.841900373472    -0.068945130954     1.788842689931
C      5.012794123740     0.589933189784     2.288875383303
H      5.828031576446     0.504602277776     1.538935828161
H      4.812142983959     1.671671285781     2.460535908508
H      5.357936500519     0.118863621994     3.236875073125
Pd     0.202388858421     1.038920696987     1.035768365971
C     -2.391568029048    -1.636583153189     2.113053788579
O     -1.485650314002    -1.178267879808     3.052783353334
O     -2.833158806082    -2.785580601173     2.131109337355
C     -2.795457550236    -0.536414503102     1.086348295172
H     -3.840170222151    -0.278124099841     1.327221071309
C     -2.746338960176    -1.034630259775    -0.341216665473
H     -3.126247145169    -0.252349609780    -1.026872417566
H     -1.704837459715    -1.279047106652    -0.625164614712
H     -3.375970394718    -1.942255464799    -0.453278810303
N     -1.894691682790     0.605668787900     1.218696620350
C     -2.176199334243     1.887139228036     1.047995720966
O     -1.162427951119     2.715688443989     1.035463981716
C     -3.545060380332     2.398090477414     0.865502424262
H     -3.977346277565     1.932685672601    -0.035753174438
H     -4.125537579409     2.144161608459     1.768890522143
H     -3.500038402283     3.495993591785     0.745085370737
N      1.883594706318     2.067211288815     0.747170728795
C      2.059363917359     3.177127549513     1.525358786521
C      3.064157740657     4.068650508172     1.223257480636
C      3.895890264114     3.857894303482     0.146775255940
C      3.702146078189     2.746497236108    -0.630681992150
C      2.673216514106     1.821641845410    -0.321300189893
H      1.412586256934     3.348437038385     2.378383458645
H      3.200175686231     4.937722748375     1.846007005196
H      4.690792313036     4.562179892493    -0.083708789307
H      4.324097942239     2.530835900869    -1.475944710313
O      2.539119369748     0.826581108121    -1.092931670762
H      0.345717202392     1.754303713104    -1.515287329133

