# STO-3G

title

0 1
C      0.560762679112     3.311152396150     1.459525241174
C     -0.679985206989     3.963841576792     1.204194339222
C     -0.721223609789     5.271685493513     0.696320459076
C      0.473655846694     5.968688088473     0.435053662938
C      1.709863960358     5.344920787496     0.696215090157
C      1.758684816175     4.036520494486     1.204928042269
H     -2.174002973488    -0.960209838386    -0.568499659425
H     -1.603617175842     3.426234064273     1.409761971389
H     -1.682162628091     5.746042141815     0.513548559505
H      0.445157917668     6.983864803506     0.046360963075
H      2.637262052184     5.882505287991     0.513450036528
H      2.737408952245     3.620055304565     1.418192053441
C      0.466968449127     1.929934250030     1.999440579051
H     -0.549164892699     1.660501123617     2.287542345005
H      1.006187796640    -0.626024253913     0.486990087197
C      1.432011520185     0.962792001656     2.310496223903
H      1.100129949049     0.085658472261     2.846539599633
C      2.873086203898     1.036207084308     2.060864808539
O      3.209180347993     1.223964462963     0.858595916993
O      3.728189996480     0.348021185168     2.934069733107
C      5.110562380620     0.299121155168     2.553754738476
H      5.685359400468    -0.246002376848     3.333974388149
H      5.239602045210    -0.244528560362     1.590417247446
H      5.534763619362     1.324755172045     2.464553145656
Pd     0.846175833463     0.822277965436     0.065433890657
C     -1.001086290228    -1.638436837681     1.933116392629
O     -0.591179407708    -1.436075316606     3.087919959948
O     -0.169541934586    -2.108172884107     0.959500000816
C     -2.467892598794    -1.327278427818     1.506520212895
H     -2.919014577938    -0.759087800003     2.323417441667
C     -3.274485452750    -2.582127956517     1.254466071946
H     -4.321704540547    -2.302958859627     1.015579378399
H     -2.850637570856    -3.134948152336     0.390646870605
H     -3.267964613136    -3.230673499751     2.154816291915
N     -2.505949905537    -0.515740791505     0.290564999727
C     -2.593629090733     0.833114641443     0.350165096431
O     -2.681636767696     1.503214900608     1.414356424195
C     -2.597457115056     1.559257688555    -0.939788304764
H     -3.532926131083     2.142387879492    -0.981651557112
H     -1.730234834412     2.238462265333    -0.953897640557
H     -2.558224518644     0.858432736268    -1.792980828172
N      0.757980808800     0.172891791224    -1.875100362003
C      1.484571091421     0.879594400351    -2.795794392950
C      1.468727223926     0.507721191497    -4.121300566999
C      0.728774889800    -0.575118802628    -4.537929463616
C      0.020963785106    -1.279730304775    -3.601702437434
C      0.058236331505    -0.892440796441    -2.241192483145
H      2.061832708239     1.741566851427    -2.480402810585
H      2.038303485018     1.076423360304    -4.838701973491
H      0.710336467625    -0.867026678665    -5.584813466115
H     -0.568503488288    -2.135956405209    -3.864178550830
O     -0.631114109344    -1.636354494328    -1.441980366722
H     -0.412853973570    -1.941313119196    -0.052648449781

