# STO-3G

title

0 1
C      1.342889788508    -2.901812306135    -0.351425894434
C      2.348875039716    -3.669222732793     0.266967795235
C      3.306549906418    -4.334586117377    -0.523822796621
C      3.259717519894    -4.228461793229    -1.928763409906
C      2.259250500254    -3.449803685036    -2.544563454187
C      1.300645918326    -2.783504942062    -1.755521638419
H      0.607076571318    -2.393563839836     0.266404342056
H      2.385508070259    -3.727955872000     1.351495770556
H      4.086007483227    -4.925196607780    -0.048153946438
H      3.999803555799    -4.742432962358    -2.538238425047
H      2.227814515805    -3.358512704595    -3.628073947881
H      0.543465415267    -2.161278725826    -2.230600549475
C     -2.228895075275    -2.271964285847    -0.300956706774
H     -1.600742726566    -2.723770179810    -1.063946027764
H     -2.360866301573    -2.837525773222     0.615683650476
C     -2.981498696985    -1.120371826969    -0.524554458801
H     -3.649550442270    -0.792630651709     0.259280514004
C     -3.044278420827    -0.410552520012    -1.815850297594
O     -2.498245585873    -0.912752039041    -2.835234845337
O     -3.809137891791     0.765768146887    -1.899289456611
C     -3.807428587846     1.420451046419    -3.175554209674
H     -4.431781589397     2.337827694878    -3.120239185742
H     -2.773399064695     1.718575739038    -3.463773595065
H     -4.233019433754     0.756209543185    -3.961762668087
Pd    -1.033403431194    -0.542738994704     0.531748103892
C      2.017776749973    -0.586909422799     2.751060263932
O      1.149060032315    -1.619569067734     2.894868808865
O      3.214265561246    -0.685890111397     3.060955468709
C      1.465552025688     0.763561011214     2.168065510421
H      2.362440793855     1.357777397985     1.944356757710
C      0.626113991212     1.517872027313     3.175466919501
H      0.346349609277     2.507385153827     2.758104078169
H     -0.303591809936     0.953523708011     3.393191712855
H      1.196339434074     1.670475259560     4.115500967566
N      0.643147473966     0.566847597465     0.990646982915
C      0.823073677943     0.872697545480    -0.268228944044
O     -0.136127684523     0.459599795536    -1.088512161197
C      1.996346415586     1.592670659586    -0.779425019713
H      2.037872111425     2.579854884035    -0.289887769204
H      2.892010698688     0.989295599122    -0.551296480167
H      1.886514836054     1.708841793802    -1.873211013491
N     -3.600669528452    -1.201320634798     2.531578841750
C     -4.730789559702    -1.380864471148     3.282819729727
C     -4.634236675315    -1.870296373085     4.572952819588
C     -3.403984368836    -2.181990948174     5.112638386880
C     -2.287620520346    -1.989742375511     4.340059959588
C     -2.446378013757    -1.484694953113     3.027161998690
H     -5.700159424606    -1.140236111317     2.862201011288
H     -5.530202542719    -2.010441214065     5.154938127217
H     -3.322003495129    -2.571349859479     6.124015823779
H     -1.304898142612    -2.220559630859     4.698530283640
O     -1.299544903207    -1.337500898614     2.358461483290
H      0.145521699401    -1.480360774028     2.731399536738

