# STO-3G

title

0 1
C      0.927628051320    -3.561977688687     0.047481850626
C      2.140197304153    -3.810933452012     0.722648557031
C      2.901739771482    -4.950645325647     0.397171517492
C      2.454188456582    -5.841517052200    -0.599177723802
C      1.241457428337    -5.593118102795    -1.272009360990
C      0.479103465311    -4.453347012264    -0.948285485045
H      0.345915321518    -2.682773821876     0.310025115987
H      2.472078742790    -3.117512555138     1.490095636346
H      3.837700421771    -5.141049284740     0.917404346843
H      3.044269216075    -6.720566757911    -0.849316094463
H      0.894162181520    -6.279659737349    -2.041091956605
H     -0.457436595374    -4.271224785068    -1.471972940758
C     -1.909078035485    -1.778452024829    -0.861442423677
H     -1.303589294598    -2.006521864611    -1.734939796626
H     -1.935944385735    -2.518722380843    -0.068834218627
C     -2.777972873220    -0.691008955507    -0.810180808701
H     -3.406403805715    -0.594473296975     0.063988719379
C     -3.017005227135     0.238181488065    -1.930322181215
O     -2.565250966864    -0.031215044446    -3.075783514423
O     -3.867168587254     1.337636492871    -1.719281633189
C     -4.054245572819     2.205265595999    -2.846132918208
H     -4.730613748681     3.039376315385    -2.561191051463
H     -3.082344903917     2.639741092990    -3.174359157395
H     -4.518482885429     1.655351424744    -3.696193634231
Pd    -0.801672830788    -0.123308285829     0.198496900125
C      2.280652759093     0.071207646609     2.410354088019
O      1.580528731313    -1.089334438939     2.459317676860
O      3.483150512927     0.127902655568     2.708437381857
C      1.518734441740     1.363983286614     1.957165514933
H      2.306496544658     2.112032575647     1.791324219742
C      0.582411112452     1.877866301926     3.029311320476
H      0.141511423808     2.843508486702     2.705831893496
H     -0.241225176848     1.152644944350     3.192525429722
H      1.133418472743     2.032960369231     3.980389091683
N      0.723439991312     1.144932839983     0.765068549522
C      0.761109297361     1.682701087485    -0.426341828190
O     -0.147605517589     1.222523551902    -1.278424170468
C      1.718761370891     2.720698869470    -0.830709962059
H      1.573093472846     3.598434638980    -0.179153083058
H      2.736204630937     2.306409165239    -0.728432295457
H      1.520742352275     2.987936127199    -1.885037404386
N     -3.147634225894    -1.544999959036     2.140508005887
C     -4.178719647825    -2.082161407438     2.863083225910
C     -3.919783230256    -2.760080659216     4.040442214430
C     -2.625675624842    -2.902387959384     4.495304822145
C     -1.612108565884    -2.350425843601     3.755161739633
C     -1.936209478603    -1.666087167987     2.559097359635
H     -5.197005896856    -1.976528440602     2.507537785185
H     -4.738045853784    -3.182554381899     4.599902459140
H     -2.414807480951    -3.439998477973     5.416018507383
H     -0.585771534915    -2.438174698521     4.049847652851
O     -0.876355268955    -1.172627359305     1.911024302329
H      0.566997219929    -1.099037536007     2.283316505658

