# STO-3G

title

0 1
C     -0.758831567727    -1.552407583229     1.269630613322
C      0.100180015961    -2.667834595156     1.344210523987
C      0.315280885449    -3.319605428314     2.575811045861
C     -0.332697757147    -2.858202497533     3.739443896838
C     -1.193150360618    -1.743793191481     3.668277234579
C     -1.403348093057    -1.092395187456     2.436428564610
H     -0.915220342386    -1.067017761091     0.309580034463
H      0.598275855579    -3.022956965241     0.444753382836
H      0.978645748476    -4.180666704156     2.628768270084
H     -0.170781437642    -3.362674452907     4.689711836395
H     -1.696431684288    -1.387431975066     4.564511084119
H     -2.061633574371    -0.228375763478     2.382337545979
C     -2.285446540430     1.908150539328    -2.322284955028
H     -2.606560821974     2.921842687026    -2.096797266814
H     -1.725867721733     1.756535470610    -3.239263830950
C     -2.733190520984     0.809072275728    -1.581319344548
H     -2.454197134815    -0.192312655670    -1.881504562995
C     -3.693817788650     0.900589077350    -0.465985798918
O     -4.323821239569     1.973873915326    -0.264375986794
O     -3.998588211798    -0.268959821026     0.252130684579
C     -4.960535488572    -0.123815250243     1.305695699954
H     -5.101259235245    -1.103151476159     1.811494360017
H     -4.608950490032     0.613666895336     2.062578003165
H     -5.943923101494     0.204856904368     0.899445737503
Pd    -0.666780444934     1.399131386902    -0.874667272756
C      3.071550350330     2.354111470743     0.848272251516
O      4.393672874803     2.071055219734     1.181061615337
O      2.720929667185     3.508720065507     0.631031934427
C      2.148943182031     1.093195714273     0.834859305125
H      2.298706414608     0.570930023696     1.797947142413
C      2.514994448913     0.134009865746    -0.276904202656
H      1.798167063310    -0.713536365866    -0.286886902624
H      2.448799135619     0.661602922553    -1.251518276365
H      3.536258449071    -0.275393789417    -0.153305345811
N      0.772000406155     1.445502122641     0.641627897299
C     -0.081309321361     1.987492880299     1.471388501144
O     -1.291457312434     2.190198624496     0.982205256345
C      0.220298208506     2.310744905654     2.873630475898
H     -0.688139258939     2.746737119185     3.326408512849
H      0.490983691174     1.375095016977     3.390022145225
H      1.041670326115     3.048278294300     2.893550285492
N     -0.627266545918    -1.472668319856    -2.123669227724
C     -0.671042169824    -2.795508225674    -2.470265073534
C      0.133532022999    -3.271665014851    -3.489449656129
C      0.977406336388    -2.419784709304    -4.171426855676
C      1.003948738905    -1.099479719123    -3.806149907936
C      0.166136346021    -0.661107121405    -2.752146375160
H     -1.335394043012    -3.467764831144    -1.939893683827
H      0.089349591412    -4.314588587008    -3.755309991257
H      1.605880569997    -2.786582114827    -4.978353230279
H      1.630630132247    -0.379173449489    -4.290875232899
O      0.277299721599     0.634718966223    -2.478677479123
H      4.532316682583     1.124627182566     1.397379445884

