# STO-3G

title

0 1
C      3.077612883197     0.487903055395     1.007629209930
C      3.916875676297    -0.187441640965     0.099041126518
C      5.005185555251     0.484209776307    -0.492904565607
C      5.257452847757     1.833441725090    -0.172836390615
C      4.419824623128     2.509344641866     0.737291472715
C      3.329649629322     1.837855618201     1.325651671442
H      2.242705853512    -0.045959794607     1.451962563985
H      3.715858006515    -1.227328465193    -0.148602476330
H      5.650114600101    -0.037250096879    -1.196774915414
H      6.097920068827     2.352927308892    -0.627797069491
H      4.615097872311     3.550203674202     0.986067721956
H      2.677538789046     2.363440593836     2.020397082750
C      0.308641481821    -0.119841058143     3.475920181342
H      0.717859453397     0.744827815752     3.992682026656
H      0.978756882622    -0.907269448671     3.135221620652
C     -1.067996326042    -0.314123853141     3.355556055196
H     -1.429256320981    -1.226794108563     2.901397204844
C     -2.100141921722     0.536104642765     3.976010398755
O     -1.764584888987     1.503258455184     4.709433479681
O     -3.451212062694     0.224259698356     3.748702107596
C     -4.408017182708     1.096938312938     4.366043690644
H     -5.434970996192     0.755444845869     4.113373002002
H     -4.299303924852     1.082951280527     5.474405303865
H     -4.287682926211     2.140711104081     3.996214407065
Pd    -0.275459525120     0.673354967524     1.452208534994
C     -1.373786019747     0.887529116380    -2.162686338852
O     -1.743300400899    -0.223669873675    -1.484098365995
O     -1.972830190815     1.268774230792    -3.180515027537
C     -0.139493522335     1.703329386309    -1.639033276077
H     -0.177549368348     2.634822035505    -2.216425020187
C      1.170870921859     1.008346054818    -1.940001035027
H      2.017074954559     1.661331928736    -1.639001386042
H      1.238981045067     0.062065363240    -1.366694141677
H      1.252754886160     0.789960799785    -3.024991175520
N     -0.187594037542     1.922486606134    -0.206501044973
C     -0.109992479868     2.973640666890     0.565502676107
O     -0.158277761773     2.711663696160     1.870576189881
C      0.058056352445     4.364633338166     0.118600619498
H      0.984764725897     4.747827152253     0.579032301647
H      0.126847505913     4.426307784445    -0.975590172288
H     -0.810066747638     4.941378398823     0.483194927955
N      1.198628318140    -2.343737437800     1.525143278113
C      1.943361104165    -3.491355746926     1.563075908094
C      1.737196501371    -4.480676433864     0.619714870554
C      0.774937178742    -4.327080766323    -0.356122891090
C      0.040743844687    -3.169263288925    -0.368889995188
C      0.297064868784    -2.186323378532     0.617061348409
H      2.698734322713    -3.617503854161     2.329879505646
H      2.329138353916    -5.380396169428     0.656974342816
H      0.601769834392    -5.105136707856    -1.094981940503
H     -0.729576537583    -2.996887056055    -1.094015741810
O     -0.469312091685    -1.097072964487     0.510106301358
H     -1.184496616080    -0.574489161713    -0.699293494849

