# STO-3G

title

0 1
C     -0.539255025662     0.146442422821     1.048587439664
C     -1.810650822142     0.717574467305     1.255976911346
C     -2.574645328547     0.354432092531     2.382874798834
C     -2.064226810415    -0.578560100904     3.307981503787
C     -0.792138290395    -1.149608914839     3.102668784648
C     -0.031914426213    -0.788954033542     1.972415899957
H      0.040670916467     0.450255805989     0.181797993614
H     -2.201491423751     1.435399129829     0.537840508180
H     -3.558537310439     0.791884614405     2.539154127387
H     -2.652610078745    -0.859029664451     4.179040892618
H     -0.397152291118    -1.869068048319     3.816786023243
H      0.951552764922    -1.228012587553     1.812880029228
C      3.100594741305     0.895144152426    -2.168785912577
H      2.672986681258     1.786777051818    -2.615249871175
H      3.626028411686     0.214737601371    -2.833800600199
C      3.118124432253     0.712913085339    -0.791927565228
H      3.574776954043    -0.176390224103    -0.378552435148
C      2.713631428172     1.722476326068     0.201161693591
O      2.756917523005     2.948016865031    -0.091860048186
O      2.547351947541     1.301431277937     1.530924347737
C      2.042486244868     2.289248270039     2.439140962207
H      1.928795250214     1.835895815978     3.447264621570
H      2.743208580261     3.151042423739     2.519082841806
H      1.041164122616     2.649283224611     2.110582965810
Pd     1.387131180895    -0.539654433280    -1.754551611725
C     -1.214314393443    -2.275807411666    -3.870046913435
O     -0.704971504796    -1.132385126529    -4.382960449302
O     -1.730942253451    -3.148837211599    -4.585175123346
C     -1.146112396963    -2.492672795476    -2.315242848246
H     -1.446175766400    -3.539284486496    -2.185974758386
C     -2.132812653284    -1.621201935654    -1.568855997031
H     -2.125569570052    -1.890286749528    -0.491628421540
H     -1.848244824757    -0.554492828143    -1.664105293983
H     -3.157551359158    -1.767386667255    -1.969072537103
N      0.169245719269    -2.212979414643    -1.772019613555
C      1.049098764933    -2.898018405870    -1.091691219698
O      2.159428529797    -2.227921590806    -0.783734458742
C      0.894404952163    -4.284438294389    -0.626141677298
H      0.994838932704    -4.275077017942     0.472837533527
H     -0.084069200459    -4.694160409618    -0.910086602575
H      1.706567529067    -4.883133433114    -1.074401714377
N      0.147100194410     2.354138564528    -1.348687544028
C     -0.308332007638     3.593342104358    -0.987630318787
C     -1.164273736198     4.285547749215    -1.826815959969
C     -1.546194386957     3.745658018115    -3.038156902355
C     -1.060240121715     2.510011087231    -3.382450760724
C     -0.188775395385     1.851607524647    -2.484690269508
H     -0.010438170235     4.020380745230    -0.037182742394
H     -1.520734071187     5.258562261410    -1.532204442850
H     -2.210294454337     4.288975495871    -3.705064369759
H     -1.301954987827     2.041137453188    -4.314919471390
O      0.247639446059     0.659900865314    -2.898777509210
H     -0.367770569417    -0.385074497249    -3.766712138608

