# STO-3G

title

0 1
C     -0.990134849415     0.337411007286     2.961382563105
C     -0.487616568960    -0.310837351833     4.107522685220
C      0.155825342649     0.432863842184     5.116944651060
C      0.293360975408     1.829152197427     4.982567914192
C     -0.212034033548     2.479161831460     3.838479111937
C     -0.852142317718     1.733905316421     2.828450264815
H     -1.480860771731    -0.253579437579     2.193716325935
H     -0.591301440906    -1.389496545915     4.204838402730
H      0.546615421024    -0.069685698593     5.999016176433
H      0.788720754206     2.404556794179     5.761482410298
H     -0.108757213313     3.557055393230     3.735308934827
H     -1.236223156626     2.235618226453     1.942832640489
C     -2.729902410882    -1.123725852084    -1.287864700214
H     -2.704592225774    -0.761551489324    -2.312262615466
H     -2.601797647405    -2.190805467027    -1.136661261812
C     -3.095854659187    -0.313183623387    -0.215042723293
H     -3.191969838002    -0.775102117307     0.757401271674
C     -3.511129922821     1.096128731606    -0.339251001196
O     -3.716234276355     1.593620886429    -1.478998371328
O     -3.770076902082     1.823486948913     0.834966868460
C     -4.129954189201     3.199230012165     0.650198154949
H     -4.296757389311     3.672212989112     1.641738254686
H     -3.314750373689     3.753101150860     0.130947267708
H     -5.070262644204     3.286298483481     0.059715215462
Pd    -0.804463635307    -0.413650794244    -0.356246554594
C      2.828986687382    -1.515915117080    -0.484542579959
O      1.902063366126    -2.481027819563    -0.696641302834
O      3.995213911569    -1.619308670166    -0.894971599295
C      2.392939861417    -0.243302119927     0.319015837916
H      3.210676073138     0.475814478837     0.172847648896
C      2.258367801235    -0.525217647732     1.799571325161
H      2.037338238968     0.418518690134     2.341210424472
H      1.422328783973    -1.231966167643     1.975302525897
H      3.199329817148    -0.957712353758     2.198316758012
N      1.123194685329     0.289849701011    -0.133890140006
C      0.767198811323     1.481679973403    -0.529564114536
O     -0.521619605472     1.613533198192    -0.833102653719
C      1.682150389044     2.627408445125    -0.614912404125
H      2.094744780111     2.811838034074     0.391505775785
H      2.477094739836     2.378135376318    -1.337862248343
H      1.110730070986     3.507098734438    -0.963252107397
N     -2.191823023728    -2.592537135399     1.698576649094
C     -2.797594121735    -3.354822084976     2.660475093383
C     -2.247805630808    -4.569205078654     3.028364111730
C     -1.095711225716    -5.027728567275     2.424478967289
C     -0.510921382485    -4.246235701476     1.461618533213
C     -1.112909130089    -3.009624995978     1.128358845507
H     -3.704211044252    -2.999718200964     3.136345703850
H     -2.731374193937    -5.161230047234     3.787935651489
H     -0.663218311729    -5.984787980069     2.704176814798
H      0.379827197605    -4.550334513013     0.949107601037
O     -0.461577954768    -2.321191558614     0.187925656474
H      0.965201562258    -2.410793655680    -0.289312632581

