# STO-3G

title

0 1
C      0.795304717841     2.459968928554     0.289390696036
C      2.049670576930     2.734502135167    -0.286719911356
C      2.366880028998     4.064419206288    -0.638085109008
C      1.440572628504     5.099540962610    -0.410727665136
C      0.188123508693     4.803156704641     0.161944997395
C     -0.145909083569     3.478620611724     0.513753683505
H     -2.493318160796    -2.176155953471    -0.656256640967
H      2.773846728625     1.941694402908    -0.462560615622
H      3.336073340545     4.281069976181    -1.082959410581
H      1.689845339419     6.123627564093    -0.678652693815
H     -0.536396327855     5.596884584091     0.331486655032
H     -1.126038920237     3.240353308449     0.913692704674
C      0.286807311708     0.868503276495     2.839750485230
H      0.067282610177     1.894185636660     3.117399793185
H     -0.434469090076     0.120243574514     3.157876561821
C      1.597668685931     0.458147666645     2.476302980279
H      1.822904802886    -0.599458941260     2.433855070611
C      2.779800867947     1.336068182284     2.535632853651
O      3.894359821553     0.876130959763     2.177654756293
O      2.640380135761     2.659527541106     2.987365638113
C      3.816174227370     3.476763338929     2.909071822049
H      3.579003117827     4.497371578663     3.279083680952
H      4.633965436551     3.057497383127     3.537960184990
H      4.165527482008     3.565651009664     1.855480901590
Pd     0.255673040462     0.594140302430     0.709786955553
C     -1.318919755716    -1.857127403902     0.786880430232
O     -1.557446519682    -2.458269548398    -0.394803603385
O     -0.132332386336    -1.754606654729     1.223757343925
C     -2.572351219504    -1.220265627451     1.415091144511
H     -2.242057690478    -0.420949955710     2.089585075568
C     -3.401584300184    -2.221021977983     2.184978622574
H     -4.281665471710    -1.707368329409     2.623783646991
H     -3.766830290309    -3.007043340102     1.489992132713
H     -2.801480449490    -2.684969545387     2.994332015128
N     -3.398586405877    -0.753631012046     0.280414901797
C     -2.979377853547     0.377854003073    -0.274416030188
O     -1.918878177399     1.081662230962     0.006781900598
C     -3.829420102190     0.859554817140    -1.374676895847
H     -3.401693278394     1.788618256952    -1.788657025731
H     -3.856236226502     0.064831859116    -2.139921742542
H     -4.841871853212     1.035130755284    -0.971977348872
N      0.686403131731    -0.014488951464    -1.354232744101
C      0.348970814979     0.830231236372    -2.379484663279
C      0.843001408666     0.603311482669    -3.649460028389
C      1.660968529097    -0.478201274154    -3.898801736439
C      1.958089427680    -1.321562121093    -2.860288864119
C      1.419524813469    -1.058373450366    -1.584249668346
H     -0.289883987486     1.685376031860    -2.191670132532
H      0.583140295050     1.279139069905    -4.447058652810
H      2.050603185763    -0.663987152236    -4.896027194898
H      2.563092694025    -2.196624885387    -2.988162400819
O      1.725141498792    -1.967323344326    -0.662630118027
H      1.127247460149    -1.945166652780     0.146270473723

