# STO-3G

title

0 1
C      2.153385013079     1.880728369974    -0.648166737605
C      3.520000914848     1.528282465455    -0.596228348754
C      4.486555965049     2.368413757785    -1.188876330671
C      4.095889879369     3.555992757523    -1.837125995920
C      2.732179805682     3.903613705666    -1.891631985856
C      1.759131418041     3.067941848332    -1.304075085044
H     -0.439093835269    -1.139364293636     1.915543687490
H      3.837994151258     0.608605299380    -0.109446820685
H      5.537957817795     2.091932103442    -1.142343980809
H      4.843615127066     4.201518959199    -2.291827445604
H      2.421802097577     4.821876201144    -2.386063566826
H      0.709806894897     3.348484219662    -1.359820096669
C     -0.987912445247     2.789336405619     1.779595416983
H     -0.210280031617     3.064012899627     1.070409590555
H     -0.685753191382     2.700486221112     2.819845487404
C     -2.257505710598     2.519954870413     1.400524024859
H     -2.997199619067     2.253871011909     2.142697862926
C     -2.737121328711     2.521446540491     0.010639251660
O     -3.953554593103     2.286852554955    -0.214797542144
O     -1.835166703568     2.786345325986    -1.038478108008
C     -2.375832206317     2.681414652065    -2.363221428212
H     -1.580676212035     2.900494303188    -3.106954519668
H     -2.753340807229     1.650506171149    -2.553803986919
H     -3.204295700976     3.410681443438    -2.512264673639
Pd     0.803451570288     0.712932872164     0.208846495196
C      2.067382379355     0.395689896192     3.169486698625
O      1.614511793388     1.259685658562     2.135209587217
O      2.990081796842     0.747445300090     3.896876485877
C      1.310330475142    -0.945920440071     3.200415733472
H      1.405565573187    -1.271883397145     4.243836133777
C      1.961046346512    -1.982533385390     2.307573416980
H      1.468351118293    -2.963592873879     2.473478171305
H      1.824156082074    -1.705787235616     1.243224477494
H      3.041639085367    -2.078587318713     2.541739830662
N     -0.093786204860    -0.851843532185     2.841304089285
C     -0.924805234339    -0.162928376444     3.666349788629
O     -0.531134995916     0.559759576952     4.615005424717
C     -2.366558900690    -0.345817441705     3.414975063404
H     -2.936242393234     0.321303234236     4.083340836366
H     -2.560766221463    -0.122431955349     2.352377270446
H     -2.607823055948    -1.403375480329     3.615572473218
N     -0.006028287050     0.021534699708    -1.497824955725
C      0.131643539672     0.236771219956    -2.837420090477
C     -0.727192538924    -0.394297337084    -3.716855426910
C     -1.711840103066    -1.247573717043    -3.253874394722
C     -1.824768558440    -1.452936830498    -1.902014004341
C     -0.934279160630    -0.794463982472    -1.025965624240
H      0.902898822036     0.902822936298    -3.206084511551
H     -0.618433890999    -0.225276578991    -4.775394795449
H     -2.384274941648    -1.746266511567    -3.946739110019
H     -2.564323671520    -2.098069468150    -1.472800304720
O     -1.035308108202    -0.978113854631     0.248168348467
H      2.064593777036     2.131217265845     2.169590969552

