# STO-3G

title

0 1
C      1.898515702253     2.181364215687    -0.501819128757
C      3.298756923453     2.022100020632    -0.470421641657
C      4.125621142321     3.079574676495    -0.903358387846
C      3.561534620151     4.286371764640    -1.362146329804
C      2.162370588761     4.439903108743    -1.382601744702
C      1.325048591552     3.386114330157    -0.957665564477
H      0.710495975636     0.225488547141     2.501933896154
H      3.750630689064     1.108224264506    -0.090868044874
H      5.206390706268     2.958647440173    -0.871655319602
H      4.205092733978     5.099211694605    -1.690863161979
H      1.718486038073     5.374380316037    -1.720422524433
H      0.244965962325     3.520087060235    -0.971757701483
C     -0.873368769617     2.346139550728     2.369521310523
H     -0.237639778881     2.967997500330     1.745052136674
H     -0.389271480610     1.897512631609     3.233568869573
C     -2.184964062075     2.125547497037     2.122688619443
H     -2.762069602039     1.476658131542     2.767198233148
C     -2.925139606565     2.688466404080     0.982688846473
O     -4.173694060417     2.530233356729     0.923734434504
O     -2.228352972549     3.387475216372    -0.022939450215
C     -3.023617236579     3.875925687777    -1.111934346869
H     -2.368346620959     4.394577570026    -1.843962509186
H     -3.534025435728     3.036956752686    -1.636573300681
H     -3.786163196087     4.601860837366    -0.749027970123
Pd     0.797785362679     0.705593834332     0.229824989920
C      2.558573574005    -0.549924339238     2.502983873146
O      1.645129637573     0.525588385300     2.279694676446
O      3.729919188233    -0.422410555083     2.163016416243
C      1.857176844035    -1.782392418593     3.142542534656
H      1.211508706307    -1.393563471286     3.951632179877
C      2.854846047575    -2.740459325076     3.744472998785
H      2.316096112453    -3.568486303973     4.250192027322
H      3.483746112271    -3.168678565035     2.936362069189
H      3.500051672720    -2.219388947110     4.481695699567
N      1.060055201402    -2.569328991014     2.183342456497
C      0.069601225191    -2.093770734436     1.512489725166
O     -0.382787445091    -0.804584366721     1.500253385241
C     -0.633995020582    -3.074682768915     0.672609429303
H      0.093285274891    -3.479784616236    -0.052134220966
H     -0.983559422208    -3.884712599990     1.336378832260
H     -1.491231128751    -2.617606879719     0.151888196442
N     -0.413933558699     0.608784037035    -1.418809503543
C     -0.003005546043     0.940530254572    -2.683873604812
C     -0.912906120374     0.968319771118    -3.720245279902
C     -2.236348327736     0.658907510399    -3.501389955278
C     -2.621059341567     0.310204633242    -2.234561559518
C     -1.666516208206     0.281960071247    -1.195962877053
H      1.036239091922     1.178796225207    -2.876797809873
H     -0.579110043672     1.236486468301    -4.709669460259
H     -2.956327508719     0.683769328224    -4.315237469569
H     -3.635500438398     0.053672067650    -1.997906424984
O     -2.143416423952    -0.088019428490    -0.033024129272
H     -1.430196530870    -0.391559270126     0.735119526097

