# STO-3G

title

0 1
C     -3.512065545380    -0.973525935948    -1.652047895932
C     -3.703081094879    -1.815979730598    -0.519094804824
C     -4.959172160562    -1.825750912139     0.147683005831
C     -6.006309584074    -1.020675996602    -0.310498762585
C     -5.826045209678    -0.195531926695    -1.451140184485
C     -4.595098243355    -0.170222247447    -2.113159812483
H     -2.598097766213    -1.028095747607    -2.236248631490
H     -2.934914138037    -2.536893406967    -0.251634793027
H     -5.097190685539    -2.475923030018     1.008045850675
H     -6.968043268412    -1.036227224188     0.196280470609
H     -6.653984235198     0.407600469557    -1.816300164356
H     -4.470965294944     0.424682484525    -3.017247864256
C     -3.316157235572     1.371642603860     0.583028675073
H     -2.612050698131     1.625730290083    -2.121448324547
H     -3.417720549642     2.191378014084    -0.136551100042
C     -4.049240431109     1.406109387836     1.715532906911
H     -4.725778958981     2.231572996874     1.903413146997
C     -4.015630779515     0.364255247999     2.750345761811
O     -3.259207705704    -0.635648873373     2.606269445380
O     -4.834526619394     0.505026654526     3.883984346011
C     -4.768621396214    -0.561353042024     4.841295000482
H     -5.455993609419    -0.340328904664     5.686285286011
H     -5.082783010710    -1.525862461153     4.381454123815
H     -3.737719233586    -0.663874466976     5.249856409137
Pd    -2.059396501373    -0.104600872096     0.073427399655
C      0.527527076048    -1.450029011061     0.032368851053
O     -0.670871547385    -1.592164708980    -0.517532192341
O      1.566589489968    -2.085378698113    -0.265945208632
C      0.595711523146    -0.358836424956     1.178927618395
H      1.647296906467    -0.057739428544     1.257077763531
C      0.147476481406    -0.921119189040     2.508351883780
H      0.143103506036    -0.121803134523     3.277037150741
H     -0.876283744854    -1.334377509510     2.414490262780
H      0.833833029087    -1.732575512306     2.828214768299
N     -0.320062216288     0.756018690843     0.833326553120
C     -0.019093827346     2.013527530932     0.822514975636
O     -0.787903167032     2.973688749536     0.288603345788
C      1.209538759196     2.524370176591     1.456760972594
H      1.241550201536     2.162614464680     2.498803528347
H      2.077415689727     2.173339068082     0.873898674901
H      1.194614040683     3.630673549395     1.452774179693
N     -0.849288981216     0.336248024210    -3.076074348526
C      0.263715162990    -0.350292061540    -3.480557051628
C      1.506618705441     0.261264910831    -3.422701305902
C      1.628174434391     1.557445887387    -2.962792899521
C      0.494856725757     2.206224172846    -2.539827015355
C     -0.735035888643     1.517080419110    -2.615183856476
H      0.168035418618    -1.364687690466    -3.849733935744
H      2.377682567324    -0.287275381177    -3.740840354517
H      2.597689125788     2.046443049852    -2.927805851520
H      0.505443039140     3.213068003495    -2.175940638811
O     -1.814681774153     2.203136217799    -2.105106078232
H     -1.402765303500     2.649067832239    -0.427709107410

