# STO-3G

title

0 1
C     -3.760596441635    -1.819310621565    -0.382410076420
C     -5.005910332969    -1.698738475366     0.296224337392
C     -6.042392131327    -0.946302568836    -0.262753107247
C     -5.858578338501    -0.302147564528    -1.513540674350
C     -4.641037621375    -0.414493029646    -2.196891974975
C     -3.579561320308    -1.183188404529    -1.643408605330
H     -3.007240032093    -2.516118591792    -0.027210747606
H     -5.140782440537    -2.205379371131     1.248552873683
H     -6.994142650013    -0.858252475915     0.254647369448
H     -6.674902858043     0.269273797295    -1.949594522574
H     -4.514977167582     0.036679870496    -3.179260225193
H     -2.674189670124    -1.351705174267    -2.217300295937
C     -3.375587925436     1.255807988290     0.694539674186
H     -2.828832230014     1.453339843348    -2.032288441045
H     -3.606042877611     2.027431294075    -0.048299392303
C     -3.951379148378     1.327124122221     1.912985643100
H     -4.620765918930     2.143649085600     2.156776656105
C     -3.749667905474     0.333787590303     2.975889783001
O     -3.049994820931    -0.691276867976     2.747225545722
O     -4.381985562111     0.526411440188     4.216174347586
C     -4.168925578454    -0.500473536412     5.195114472685
H     -4.714621385062    -0.239115819221     6.127571894666
H     -4.553902111110    -1.480310196975     4.831413004565
H     -3.086909667331    -0.595434378951     5.440940264218
Pd    -2.112393194240    -0.190907789007     0.111017218616
C      0.506396795442    -1.455438081765    -0.098281806132
O     -0.728910155380    -1.655500575337    -0.536479879386
O      1.540795113349    -2.050612726800    -0.483282322901
C      0.630311324884    -0.347919435446     1.026599776231
H      1.672342462275    -0.006696558382     1.010069096447
C      0.321313003574    -0.911064847792     2.395129212416
H      0.344119104872    -0.102805665841     3.153917658579
H     -0.686152845482    -1.372129688464     2.391237281169
H      1.068700798246    -1.686353723120     2.663867811733
N     -0.351964215067     0.729994250666     0.751897428271
C     -0.102108045964     1.998774808615     0.733094575199
O     -0.946626587210     2.930187758258     0.268187819772
C      1.149149221196     2.554918737369     1.279004186881
H      1.274208062955     2.188319975812     2.312144804908
H      1.984005774554     2.243487525572     0.629227538929
H      1.089667193740     3.659687999026     1.286422515560
N     -1.025675662721     0.323651702721    -3.102604599225
C      0.114028704164    -0.262915140694    -3.582549469113
C      1.301048430130     0.453407605989    -3.598429980237
C      1.339434583028     1.754594214831    -3.137949453381
C      0.183983666726     2.301920859592    -2.638704978056
C     -0.984734192687     1.509507789275    -2.641111538737
H      0.082481484425    -1.280805865393    -3.953208629933
H      2.193414114586    -0.016241263899    -3.977806370614
H      2.263137150468     2.326018576166    -3.161725606400
H      0.130777959513     3.305142468114    -2.268372753677
O     -2.085002682055     2.099711398344    -2.061694240013
H     -1.604387316016     2.578314994050    -0.394512080311

