# STO-3G

title

0 1
C      2.704014113005     2.427562945786    -1.360439161703
C      3.979810921576     2.934582810344    -1.030663612840
C      4.337053443690     4.239032849037    -1.432994626864
C      3.435297665075     5.017886153212    -2.183503806198
C      2.173793201955     4.494506440941    -2.529807085314
C      1.805905131043     3.192947324301    -2.129689515134
H     -1.491409249362    -0.828146341718     1.755664005821
H      4.695103054341     2.335224364286    -0.465594894408
H      5.314875890204     4.635521065668    -1.168398241823
H      3.713420442854     6.020972744118    -2.498038167564
H      1.472577892810     5.095518637095    -3.104973380909
H      0.827487106641     2.801421202559    -2.397296462066
C     -0.765395169813     2.000641696621     0.676985754798
H     -0.604305064628     2.523418520563     1.616398751075
H      0.128077289645     1.777710450746     0.094119016056
C     -1.979867366020     1.602028932151     0.239206698823
H     -2.058756654220     1.045484854582    -0.686316349962
C     -3.243614631107     1.828156617174     0.956819208936
O     -4.325770936099     1.532257295487     0.380655592934
O     -3.241088867177     2.576923031408     2.152300782659
C     -4.524811035348     2.790555024652     2.754894781252
H     -4.399321053254     3.370322190128     3.693868829503
H     -5.189082508424     3.368726210444     2.073386291878
H     -5.008634553647     1.818778417208     3.004354327969
Pd     2.285529099636     0.710078051293    -0.480920493063
C      0.929847778368    -1.110758551691     1.552947185740
O     -0.177473878058    -1.091632687034     0.851980073974
O      2.064132327239    -0.778640167011     1.052250185923
C      0.844105903946    -1.459601438869     3.057285766980
H      1.863891963428    -1.353557938457     3.438865175439
C      0.394467228330    -2.891761177033     3.282455982571
H      0.416264015507    -3.119527711898     4.368473506672
H     -0.645642969929    -3.015734715614     2.913935355753
H      1.063640547611    -3.597373041870     2.748730829140
N     -0.015569086615    -0.581323016063     3.866443277736
C     -1.232311577750    -0.242262162009     3.623757299563
O     -2.026100092610    -0.505546178593     2.544415326492
C     -1.892315388671     0.537512503371     4.675315258939
H     -1.867163245032    -0.060149942349     5.601371848248
H     -1.322545723404     1.472374014830     4.800082172973
H     -2.932733980838     0.755159461606     4.377209791169
N      1.647172558715    -0.025950582570    -2.280563631874
C      2.496115514892     0.059660773341    -3.353039875144
C      2.066139074689    -0.314773278675    -4.606891145830
C      0.785087961214    -0.779611005862    -4.797205581889
C     -0.040875774762    -0.870791379368    -3.709563364899
C      0.426784579411    -0.492495350819    -2.430967602485
H      3.505988863278     0.429261122018    -3.217395904270
H      2.738955039416    -0.235343872223    -5.445307096127
H      0.438858503023    -1.071343290849    -5.785356681116
H     -1.047491202549    -1.232358856758    -3.791831206874
O     -0.448271610561    -0.634322471251    -1.483298715669
H     -0.231302124670    -0.781130156755    -0.389108830046

