# STO-3G

title

0 1
C      2.135459060279     2.787588932309    -0.479569772905
C      3.531727687050     2.852521276916    -0.312701029269
C      4.182922156469     4.099782884557    -0.420096021103
C      3.445241985782     5.267590016190    -0.695844155761
C      2.049031168279     5.190806325459    -0.863278192139
C      1.387372093492     3.948735534748    -0.762456291065
H     -1.340882642801    -1.363386484776     1.199395376139
H      4.107671059698     1.958106306052    -0.085761092035
H      5.261119346170     4.154151779545    -0.283389908854
H      3.952182583748     6.226595512931    -0.774313761541
H      1.472178656829     6.090297841689    -1.068652732239
H      0.307008993027     3.899741697948    -0.887634211273
C     -2.129461550952     0.418739907167    -1.383859875737
H     -1.230289987623     0.990791735817    -1.593164102734
H     -2.398548379907    -0.335533679691    -2.119441013240
C     -2.851518527897     0.594042237236    -0.256653880846
H     -3.725880215868    -0.007182552798    -0.060382019839
C     -2.492741961331     1.535768580418     0.812869172757
O     -3.312659400169     1.739529920201     1.748193401439
O     -1.254092144005     2.212255153733     0.763533504478
C     -0.956582287373     3.029919812184     1.906406802574
H      0.051430857503     3.484009168654     1.793888948358
H     -1.701599221259     3.850625963847     2.011603690967
H     -0.950577323498     2.418271033903     2.838851000461
Pd     1.188577968459     1.078608559658    -0.198271909222
C      0.624554902813    -0.202397388621     2.026376688489
O      0.157052217633    -0.730081370404     0.901456408584
O      1.324670526128     0.878725773750     1.958307263467
C      0.258714294497    -0.809511186850     3.390543721151
H      0.780088839415    -0.197688058456     4.133244022855
C      0.740450662818    -2.242290551554     3.521737028037
H      0.527268859349    -2.610025657562     4.547157339545
H      0.197292240360    -2.883064209059     2.795792901352
H      1.831745315453    -2.305288358436     3.332965736869
N     -1.169526430252    -0.785119515335     3.736002046116
C     -2.163810244373    -1.122804518209     2.996577739558
O     -2.203320488831    -1.519052760869     1.686231355735
C     -3.477363557081    -1.089515493038     3.645568460224
H     -3.438996849093    -1.758679669191     4.520643276472
H     -3.658991625480    -0.047576575532     3.960241299182
H     -4.255095122154    -1.414902871947     2.932347927517
N      1.142453937556     0.578310699471    -2.223805632665
C      1.540651321053     1.398121051358    -3.251499780848
C      1.555333048899     0.927629497019    -4.548270914027
C      1.176243676713    -0.364603626167    -4.830590605186
C      0.784608204429    -1.164468445915    -3.791715136019
C      0.782514446545    -0.651240576295    -2.479079665745
H      1.838231483477     2.420193762292    -3.061378230648
H      1.867984305310     1.582444364523    -5.345842245917
H      1.186288733483    -0.739255311719    -5.850932073184
H      0.475581497812    -2.180509187343    -3.942966139875
O      0.373394333101    -1.525927724607    -1.577287203905
H      0.307975843316    -1.229228803949    -0.616097651211

