# STO-3G

title

0 1
C      0.301356810832     2.979110854218    -1.316612624528
C      1.016195103542     3.677153704867    -0.323345525365
C      0.829083711674     5.068726294467    -0.179499030645
C     -0.053121241855     5.760517680717    -1.030524218451
C     -0.759939764902     5.055894635475    -2.024756753731
C     -0.585990299477     3.664039271294    -2.172099661861
H     -2.075114824952     0.674119834816     0.688900721087
H      1.694485782570     3.160098091795     0.352462435161
H      1.365896620702     5.599206598091     0.604689461910
H     -0.194899923680     6.832400427491    -0.914588868212
H     -1.449927743042     5.582257296894    -2.680959770609
H     -1.149323788228     3.128342543852    -2.933328567796
C      0.906985477811    -1.177280572323     1.723079656579
H      0.295177992460    -1.699961442154     2.451263820436
H      1.326961677424    -1.787109490397     0.928248134825
C      1.126223681215     0.156340439908     1.760213700971
H      1.719187561287     0.625214691120     0.983693582659
C      0.610895926566     1.065706508486     2.795516729829
O      0.952585506191     2.278140665542     2.746644220193
O     -0.049002858591     0.540822505951     3.923613835794
C     -0.556358905547     1.510028901185     4.850728475066
H     -1.065106302123     0.987533220127     5.688476142201
H      0.270110053320     2.124446678485     5.274352985714
H     -1.297593242201     2.176746339708     4.352974517030
Pd     0.414574399516     1.015720058347    -1.519069628448
C     -1.254220084310    -0.911069876484    -0.891415374987
O     -0.118276677386    -1.268232893791    -1.402454587366
O     -1.530387070914     0.376007688782    -0.841610454627
C     -2.212047626845    -1.953110657020    -0.284446464409
H     -1.750280150951    -2.927116996031    -0.480495972529
C     -3.569407621767    -1.924780195887    -0.958596859481
H     -4.196591731058    -2.750519403536    -0.562027777024
H     -4.070092022035    -0.959988998310    -0.732901254638
H     -3.463303389425    -2.044713458143    -2.056372684924
N     -2.451326715830    -1.870133964520     1.159681949878
C     -2.517229868623    -0.833416362186     1.914555279516
O     -2.314220998264     0.490565902419     1.643372912886
C     -2.864230139855    -1.096728520200     3.314929280245
H     -2.078871067988    -1.745055521011     3.737071745302
H     -2.910318243164    -0.141941065669     3.865073411324
H     -3.842285015820    -1.606844254446     3.334896422142
N      2.424104973845     1.002702546934    -1.967646062697
C      3.121467329239     2.083955457644    -2.445302225145
C      4.485238082611     1.997870037745    -2.633650059958
C      5.160870690715     0.832760357709    -2.348512519293
C      4.440855335258    -0.238306655049    -1.890488896256
C      3.047131199263    -0.118182853022    -1.719571120718
H      2.608218627922     3.007813456368    -2.682202156876
H      5.023916582804     2.855885476838    -3.002700371402
H      6.236301246054     0.762808467076    -2.490158288684
H      4.905889887921    -1.176456152581    -1.659013012164
O      2.470961001948    -1.226762006565    -1.284665352349
H      1.460608267339    -1.281244655039    -1.281131533228

