# STO-3G

title

0 1
C      0.096754742172     3.349865972950    -0.136265105593
C      1.011707311012     3.949374853359    -1.024208762759
C      0.725112817880     5.217008061804    -1.570033109778
C     -0.473207366147     5.881708211059    -1.242849023477
C     -1.387426599752     5.272323822517    -0.363932611301
C     -1.103272687275     4.009615154386     0.200142230142
H     -0.856506736993    -0.697905719284    -0.578089310139
H      1.914676281625     3.418925628701    -1.310507902703
H      1.435507684674     5.675929954256    -2.254606524360
H     -0.691899629169     6.857705741199    -1.669636888720
H     -2.320215775797     5.771558478833    -0.110506362525
H     -1.829744126989     3.561650778274     0.872438682785
C     -0.347155413977     1.774469098297     2.597325199826
H     -0.328337304735     0.763289555891     2.990780487656
H     -1.340268064013     2.161615542866     2.409796047754
C      0.787738649651     2.591889833457     2.609967555330
H      0.689834044970     3.638144331038     2.368726428334
C      2.092173116472     2.209895919763     3.180483660574
O      3.011714508466     3.066373711284     3.212718468561
O      2.340321577333     0.862459975571     3.497628203930
C      3.639518743590     0.572720553375     4.034072582603
H      3.713980578036    -0.514017738018     4.257907585784
H      4.439793854655     0.833963665905     3.304376272345
H      3.810113402085     1.132459791474     4.982040907037
Pd     0.562264810064     1.551031107756     0.590817232400
C      0.522297251537    -1.771927163892     1.458429629217
O      1.171706728019    -0.528879246701     1.283964385319
O      1.191996141953    -2.784618435221     1.669746364709
C     -1.002851985258    -1.637854864256     1.386328243095
H     -1.362046238669    -1.267266952320     2.359895598158
C     -1.666107829847    -2.970663591504     1.113233354487
H     -2.768684856865    -2.844202551152     1.118540592194
H     -1.354825098081    -3.334395820314     0.112310797836
H     -1.383503362822    -3.714336794968     1.887121143611
N     -1.422124377042    -0.704199090033     0.349456609897
C     -2.392047338158     0.202566808954     0.605990344498
O     -2.941896695192     0.402106487436     1.724904657862
C     -2.825545119455     0.986092248277    -0.567112587777
H     -3.233891036313     0.274488179242    -1.304589215715
H     -3.599493700041     1.707440186985    -0.254730947221
H     -1.949773076903     1.499782089104    -0.999763292273
N      0.094081576898    -0.745415628722    -1.860167312819
C     -0.156139544540    -1.725706405225    -2.781672379634
C      0.634406874084    -1.839766290149    -3.908846304592
C      1.679582193428    -0.968554195265    -4.120417735329
C      1.913822806737     0.008091446539    -3.189657920031
C      1.081130427054     0.097649905326    -2.045682053097
H     -0.976085017120    -2.415653251963    -2.620336049401
H      0.426378790578    -2.617181748932    -4.624330781374
H      2.302495310731    -1.052684991251    -5.006618938836
H      2.703141117877     0.722465950882    -3.298527233482
O      1.397120901518     1.075914065489    -1.237589858452
H      2.147078936130    -0.635913311969     1.291760140350

