# STO-3G

title

0 1
C      2.103251842631     2.236132317309     0.817035803255
C      2.945012732999     1.638098263171    -0.172048650644
C      3.242310825252     2.309469619307    -1.361888617594
C      2.705271794988     3.595966403167    -1.614691171790
C      1.859816244786     4.198032621541    -0.673094439765
C      1.551843771363     3.526004770565     0.535445359581
H     -1.288312722621    -2.841633472753    -0.291666488989
H      3.333064676598     0.641377678206     0.014825166685
H      3.884946428757     1.835672031927    -2.100142766301
H      2.956339693258     4.114716310137    -2.537434717163
H      1.457422748497     5.192549939510    -0.850757114908
H      0.986030361819     4.055604785476     1.296454666899
C      1.951845291014     1.592866471955     2.217455702678
H      2.480128146649     0.636258370030     2.220605759377
H      2.399087656779     2.243286989177     2.978606019716
C      0.447798292803     1.315425568143     2.423095568356
H      0.235588208157     0.270629761300     2.620710670862
C     -0.399938495778     2.181548106526     3.270942809506
O     -1.454643445714     1.705688351459     3.763057693489
O     -0.022435476527     3.514900510164     3.505483098902
C     -0.888736260730     4.270693502008     4.363938608555
H     -0.488448003442     5.301301233756     4.477831461386
H     -1.913285465349     4.340364562309     3.932534879824
H     -0.945704565774     3.807647501933     5.375531326453
Pd     0.019534697539     1.414702261041     0.411242765036
C      1.037390832043    -1.717312992872     1.416671833475
O      1.328799856722    -1.072660492810     0.308746872678
O      1.810704656678    -1.855771200666     2.399578897322
C     -0.449887323905    -2.227325489960     1.576490447942
H     -0.888292324777    -1.601953351205     2.364406026120
C     -0.520242314001    -3.672579970360     2.020516354018
H     -1.580400847349    -3.966901004749     2.165787017767
H     -0.069485669518    -4.320779805207     1.241744784995
H      0.026916812322    -3.809660287167     2.976338636781
N     -1.280963656793    -2.082166647767     0.379392996591
C     -1.892059857364    -0.938404647482     0.032371250635
O     -1.766914363252     0.167814997786     0.645045277768
C     -2.805502137162    -1.009621889051    -1.124870323888
H     -3.605479841254    -1.726845761791    -0.875692326566
H     -3.225233891034    -0.006517515128    -1.312563188407
H     -2.234642696473    -1.361521241760    -2.001992203642
N     -0.169613031845     1.398219421543    -1.751182167103
C     -0.583677053556     2.539952743091    -2.381190121986
C     -0.765008747884     2.550825246444    -3.748963106105
C     -0.523999535031     1.418162104792    -4.494557189813
C     -0.106612705940     0.288537913143    -3.843030201891
C      0.073339456501     0.316896484566    -2.441422841418
H     -0.779929092254     3.433841087324    -1.801197351604
H     -1.092936993720     3.455139502613    -4.234329846490
H     -0.661264719062     1.420690618905    -5.572600147795
H      0.104886626489    -0.624788597105    -4.362493968275
O      0.476399918859    -0.824472378482    -1.932489761709
H      0.799187815065    -0.931006133584    -0.874597564823

