# STO-3G

title

0 1
C     -0.537549139710     0.675633412561     2.621901643453
C     -0.211532522941    -0.618672703053     3.083015853035
C     -0.619520608217    -1.022630240404     4.371595442365
C     -1.343293902827    -0.136471238546     5.193300499647
C     -1.660721710700     1.158165019935     4.732488882316
C     -1.258175406956     1.565181281965     3.445612204714
H     -0.211872402792     0.985113543967     1.632456976547
H      0.369253344481    -1.283298958167     2.447066642616
H     -0.369845318054    -2.018249099417     4.728668368376
H     -1.654792577147    -0.449335035068     6.186985520463
H     -2.212555791804     1.843088275881     5.371860602711
H     -1.488918362363     2.568655172581     3.092429449144
C     -2.630392142975     1.159921054848    -1.516183421302
H     -2.440827556247     1.338095086628    -2.567236065812
H     -3.379460228263     0.417108443387    -1.252834061129
C     -2.049605598996     1.917915023767    -0.502672447441
H     -2.342248633406     1.735278112142     0.522930456850
C     -1.236584675965     3.131305734699    -0.702795666317
O     -1.057662109096     3.604839418495    -1.855863489614
O     -0.695524116612     3.754812469144     0.435651587740
C      0.009047896815     4.982772057719     0.202620276340
H      0.392408835776     5.378073940047     1.168139292039
H      0.876292364401     4.822124393559    -0.476554583738
H     -0.667577948917     5.747861474955    -0.241929080272
Pd    -0.756030121097     0.047621798576    -0.771300332305
C      2.000970453356    -0.598722624091    -0.451909041603
O      3.053585554231    -1.079883764550    -0.001722103559
O      0.779095575826    -1.129404359806    -0.198172806236
C      1.974705441636     0.691110644135    -1.337646921779
H      2.768483468049     0.558940998708    -2.083918496841
C      2.283094391814     1.931343932399    -0.527294538368
H      2.285217750430     2.818676745004    -1.191879073278
H      1.513421707763     2.073338307144     0.255978819783
H      3.279681652356     1.835833720371    -0.046973755204
N      0.635269755486     0.845970076781    -1.935247190712
C      0.322237485804     1.046608629754    -3.237197145487
O     -0.818326426950     0.826755360298    -3.740359078645
C      1.373165760151     1.604152688363    -4.122563497809
H      1.759702802831     2.527494365170    -3.660001992373
H      2.157743612221     0.845710867245    -4.268567542601
H      0.915022584163     1.847811022723    -5.099078321938
N     -2.963507770907    -3.039300212226     1.101445465163
C     -3.436565830487    -4.273957579924     0.746304687192
C     -3.511297882216    -4.622704363310    -0.592516943821
C     -3.104756971358    -3.734808746565    -1.570095267987
C     -2.638974856600    -2.503652429763    -1.177991477596
C     -2.595973943513    -2.221823820918     0.203996860894
H     -3.750522147975    -4.973072963369     1.512638935511
H     -3.880780819787    -5.597060287755    -0.867094846216
H     -3.150902569390    -4.004971758629    -2.621965881629
H     -2.297380854846    -1.782350327414    -1.890857979046
O     -2.113388155925    -0.973990611214     0.530093230050
H     -1.929637570211    -0.882898663990     1.496434891074

