# STO-3G

title

0 1
C     -0.219743339065     0.105262894305     2.738294480881
C     -0.814108140948    -0.981259477596     3.418789185269
C     -1.667021205140    -0.744969114217     4.519138164010
C     -1.920021340801     0.573516649587     4.943744242544
C     -1.315748341714     1.657697703985     4.273329373669
C     -0.468739334679     1.424332963387     3.172547394362
H      0.429813194156    -0.090667314631     1.889502711682
H     -0.589644317351    -2.000848783698     3.113592310981
H     -2.121845433863    -1.583832963081     5.039468775928
H     -2.574434925280     0.756186625764     5.792630006748
H     -1.501129224416     2.675566845629     4.608518725121
H      0.005116002474     2.262827872682     2.667131875561
C     -2.728606458592     1.200988218363    -1.225200006838
H     -2.653825190597     1.412292920126    -2.284757319419
H     -3.447532012743     0.452053966179    -0.903490852682
C     -2.032955249171     1.931364763145    -0.262721137046
H     -2.201019556522     1.727256440258     0.786923007894
C     -1.249673880350     3.152495999879    -0.531147415798
O     -1.224430350474     3.659169551454    -1.684101810100
O     -0.596909794986     3.771254434596     0.550368405682
C      0.041646275971     5.023761314191     0.263558053129
H      0.525072036785     5.412457902883     1.185691591975
H      0.825964584599     4.902107446998    -0.516958545223
H     -0.703745200770     5.776307228677    -0.081273631626
Pd    -0.814811597745     0.051503089904    -0.709716696073
C      1.953232619126    -0.652438984327    -0.671953910106
O      3.033174260294    -1.199686840783    -0.395253128159
O      0.748179742458    -1.175582370093    -0.336109580663
C      1.869117002420     0.729259474714    -1.403268789837
H      2.626483065883     0.705192812523    -2.196696797501
C      2.193534580972     1.872439366007    -0.467210423173
H      2.156784368862     2.829028339211    -1.026405761005
H      1.451886222374     1.908621203199     0.355476789311
H      3.209848344009     1.740537449472    -0.039864201977
N      0.497943259546     0.925102056335    -1.907086232880
C      0.099108800447     1.172674711184    -3.177400621386
O     -1.071640931209     0.963750022739    -3.610779421088
C      1.087040517344     1.777232359268    -4.102719824876
H      1.501340114703     2.679127522305    -3.621470548306
H      1.862075190352     1.030355405761    -4.334895745197
H      0.564141110509     2.064193917291    -5.033836628446
N     -2.463100677393    -3.318818511137     1.015474377267
C     -2.716652809113    -4.593453138885     0.584412633921
C     -2.884019254371    -4.842249958506    -0.768146852999
C     -2.789270399010    -3.813177518568    -1.685275404268
C     -2.538088848513    -2.546582048730    -1.217879307145
C     -2.381902219706    -2.373162181363     0.173338329033
H     -2.785380095699    -5.402552800425     1.302179388877
H     -3.078706598072    -5.847943015184    -1.102633961371
H     -2.910375120193    -4.001784680999    -2.748881083806
H     -2.448429063803    -1.712022184303    -1.882230753242
O     -2.117822331371    -1.079598784472     0.570079267895
H     -1.918474286919    -1.025235517582     1.538370837987

