# STO-3G

title

0 1
C     -0.166825109189    -2.099184853510    -2.948405777952
C      0.879545237275    -2.891038358870    -3.466256491507
C      1.140804776049    -2.893808758953    -4.849970364861
C      0.358995388926    -2.102103511301    -5.717083167782
C     -0.687239177726    -1.313518958671    -5.200871148915
C     -0.955391503997    -1.310540730390    -3.815607698590
H     -0.380073253304    -2.095839911840    -1.881480770420
H      1.476571245824    -3.509026651518    -2.798967891042
H      1.945130638787    -3.506494686312    -5.250563148080
H      0.564143460950    -2.103051795613    -6.785066918074
H     -1.291984522005    -0.704119765670    -5.867554716495
H     -1.773837179054    -0.724961896976    -3.403008184901
C      2.663661130290    -1.030062471379    -0.753659392106
H      2.596220598914    -0.950943480824    -1.835719334669
H      2.703316494729    -2.029343332295    -0.333298234795
C      2.876443893390     0.083257626838     0.054487546294
H      3.011583327994    -0.052961030847     1.116430780044
C      3.137873128452     1.442801281118    -0.452417748665
O      3.275713916722     1.640968768274    -1.688542251934
O      3.211859178830     2.499615022577     0.470932968710
C      3.408796436326     3.805385785794    -0.090615049334
H      3.444154939297     4.557397820920     0.726475688024
H      4.370298054424     3.854486166938    -0.650635742665
H      2.570923014581     4.073125424519    -0.774798254809
Pd     0.619408536527    -0.504769651955     0.050885495663
C     -0.001899657425    -1.802221010998     2.503203595130
O      0.154218725876    -2.156975461613     3.680167357936
O      1.058740586038    -1.474888417225     1.709098670069
C     -1.376179642442    -1.759285638182     1.787993185377
H     -2.115112283132    -1.430323053923     2.532367851133
C     -1.743325752165    -3.153630600268     1.307983215382
H     -2.737452938093    -3.155360108465     0.821065715156
H     -0.991785278227    -3.501810585472     0.569197789679
H     -1.766385048726    -3.859731923810     2.165122652164
N     -1.291977603957    -0.875293638263     0.610847632256
C     -2.332571046502    -0.360137467966    -0.083710973633
O     -2.257217314815     0.077027502954    -1.269864096026
C     -3.642939613216    -0.240817180086     0.605801168529
H     -4.028080022274    -1.243156986457     0.843713062118
H     -3.497211026154     0.367890518692     1.513560562635
H     -4.352311482649     0.271779571297    -0.070621182987
N     -0.543456473512     2.607637471388    -2.611022586838
C     -0.990870693682     3.896900261622    -2.516118267645
C     -0.969762384759     4.545602812308    -1.290800878317
C     -0.508818586259     3.892732637158    -0.164134612893
C     -0.069413268024     2.599136200712    -0.295771317870
C     -0.119980903629     2.008388853943    -1.578337068025
H     -1.355298730476     4.407679679964    -3.399647150384
H     -1.322974636517     5.560980895144    -1.222949649083
H     -0.492560322569     4.391510170622     0.801138368397
H      0.295506927117     2.040950104502     0.538583086110
O      0.343508142994     0.712298310920    -1.642563585324
H      0.019794549744     0.255365371961    -2.454893867681

