# STO-3G

title

0 1
C      1.298036044451     3.760689967348     0.099487735788
C      2.710217860443     3.581907636925     0.043361411549
C      3.430301544774     4.008616446395    -1.076854686902
C      2.754064244561     4.613362488084    -2.169882289226
C      1.360651077611     4.759951503648    -2.146765674820
C      0.621896944313     4.342990941481    -1.007625386304
H     -3.112679707622    -0.023474118126     1.851040545813
H      3.221024733861     3.134251102696     0.892373555721
H      4.511427544430     3.894293898015    -1.104478504733
H      3.324288118060     4.968789471944    -3.025218618092
H      0.842812834954     5.227220848367    -2.980323033162
H     -0.433006310430     4.587146452262    -0.933667968456
C     -1.465358472561     2.578632396481     0.520490737126
H      0.779556583769     3.625553616639     1.042525577538
H     -2.238956124720     3.102752941679    -0.043391112062
C     -1.567664017046     2.327012512771     1.845476764053
H     -2.410088319716     2.683552835100     2.429019695887
C     -0.560886752477     1.560736713168     2.592805684987
O     -0.676336261512     1.454055985304     3.841814118305
O      0.628683081012     1.189631896936     1.936583070339
C      1.498360407183     0.317335227973     2.671945060299
H      2.397044488562     0.088058749467     2.059183595588
H      1.834654242458     0.791664942270     3.621657508957
H      0.990328606075    -0.649341311955     2.893393050947
Pd     0.042096431997     1.837734547058    -0.570855971323
C     -2.216826856856    -0.172120736122    -0.649563177059
O     -0.924668665877     0.027702010655    -0.343531629759
O     -2.870768116515     0.542178976232    -1.438697157530
C     -2.806763989599    -1.326685320788     0.200688025754
H     -2.182698004775    -2.219815030708     0.085131265980
C     -4.241956333226    -1.654499907210    -0.145366590719
H     -4.593081884844    -2.492313826480     0.491721922179
H     -4.878427228509    -0.766657474784     0.046955198977
H     -4.321682127645    -1.946329957628    -1.212501937426
N     -2.750872207017    -0.940074985112     1.614006725905
C     -2.066474350089    -1.695882994993     2.519268722881
O     -1.383197864373    -2.704566340408     2.228338127109
C     -2.187298353886    -1.306432313913     3.941401259290
H     -2.639786906571    -2.156028189194     4.478188112716
H     -1.172503567130    -1.112785816582     4.324491068217
H     -2.815569391427    -0.405753109625     4.054273522945
N      1.610502904677     0.725085874416    -1.623870666288
C      2.320493336443     1.267930821727    -2.660441257926
C      3.451647689546     0.635010940136    -3.135755792734
C      3.870621896546    -0.555472360140    -2.584059770705
C      3.123595510201    -1.099497711333    -1.573756357692
C      1.965258965720    -0.427463263591    -1.128004217480
H      1.987626903480     2.189649477764    -3.116183668289
H      4.005292392189     1.076981533357    -3.947558632402
H      4.759522623089    -1.059672782502    -2.953887331764
H      3.372581145089    -2.039152398353    -1.121523894193
O      1.299021220438    -1.077335302108    -0.187705374725
H      0.335076682844    -0.735884215078    -0.060144882045

