# STO-3G

title

0 1
C      1.322453728600     3.536336888405    -0.015194109058
C      2.704121349542     3.298450490953    -0.271238346256
C      3.250660195057     3.609778247246    -1.518782507728
C      2.434152586946     4.168703200167    -2.537587593565
C      1.070706959063     4.393615663553    -2.310024758467
C      0.503268070088     4.082053385981    -1.044896030206
H     -2.642765981923     0.140241786825     1.537728269919
H      3.324662798700     2.877254958721     0.515003330843
H      4.305446835980     3.428062929555    -1.709959018141
H      2.877512245589     4.428199748580    -3.496239417728
H      0.449997673529     4.839301484869    -3.082831501555
H     -0.514131669523     4.386225342358    -0.821883415894
C     -1.374453985361     2.385467122405     0.742232406589
H      0.948752705074     3.479712572780     1.000796643079
H     -2.208948997183     2.855870444783     0.212245147517
C     -1.391914138883     2.243884010486     2.086889948046
H     -2.214425752694     2.627903156679     2.680121975832
C     -0.335107956620     1.564210326245     2.847913354781
O     -0.421812896416     1.518620878817     4.103140076220
O      0.848041024618     1.194465876329     2.179966256779
C      1.821060034249     0.502016046636     2.974786799523
H      2.702839960504     0.250426223569     2.345650793648
H      2.167190377521     1.134742025295     3.823166065129
H      1.399544706213    -0.450920187012     3.369577055252
Pd     0.003253803073     1.636536153208    -0.506288403797
C     -0.809136989487    -1.083857733730     0.432484495443
O     -1.182929650966    -0.066129035034    -0.302579717842
O      0.395907048864    -1.405386587660     0.708518906187
C     -1.965738540077    -1.831796268100     1.118618283439
H     -1.565035733313    -2.594712976853     1.789772598305
C     -2.935735259557    -2.464520194700     0.143828012202
H     -3.726026654537    -3.000607711280     0.709280480299
H     -3.410999779046    -1.670288359079    -0.467635564442
H     -2.405250484919    -3.182242999322    -0.514319068419
N     -2.675647210418    -0.809477520624     1.900832823787
C     -3.241639321256    -1.122188246601     3.095104400994
O     -3.265672269501    -2.271827720588     3.593829978970
C     -3.873326335039     0.003381954796     3.814209552051
H     -4.620603719506     0.459013845208     3.144100447586
H     -4.354843848843    -0.393034338866     4.724862931430
H     -3.083316648314     0.722491817874     4.085838556944
N      1.381274990294     0.743757403383    -1.906482789636
C      1.333498552789     1.157013408551    -3.210514571931
C      2.351712339464     0.825678857110    -4.081537089322
C      3.421540470832     0.072509890290    -3.650941233917
C      3.433458634278    -0.354091380733    -2.349688932594
C      2.361542768221    -0.012239367511    -1.495435486266
H      0.502620435773     1.762025098599    -3.553337962632
H      2.309018157045     1.166015487017    -5.102787917600
H      4.229057725662    -0.188078291530    -4.329906334187
H      4.221999830508    -0.963810824543    -1.956345642707
O      2.450309348179    -0.515447875301    -0.283359021781
H      1.528999756306    -0.772125711649     0.203307574364

