# STO-3G

title

0 1
C      0.678052440040     3.427819756053    -0.905469960517
C      2.018245216291     3.905588141088    -0.804864156753
C      3.014643633499     3.386473837392    -1.637415266697
C      2.698325582963     2.357824911115    -2.566001852244
C      1.390167203997     1.873657908323    -2.670675990862
C      0.356819355155     2.415795903391    -1.857160930223
H     -1.603610185113    -1.946321639776    -0.277104969281
H      2.244004270002     4.704901540028    -0.103045808608
H      4.028942628817     3.775400100141    -1.587379622170
H      3.476167665968     1.959441466720    -3.214004447201
H      1.149057081920     1.105800000263    -3.401171282985
H     -0.677345150165     2.148197513581    -2.058345926264
C     -1.675230686724     2.491974230646     0.516178200638
H     -0.119436499243     3.967829367699    -0.407031696974
H     -2.309723673864     2.308343772372    -0.350973516260
C     -2.000842978378     3.186160738297     1.620676551552
H     -2.974339321389     3.650107328608     1.727942721956
C     -1.094695909303     3.315398560202     2.769670339162
O     -1.428879553201     4.045907613053     3.738414746397
O      0.225722263683     2.838731848879     2.633255732383
C      1.032678313695     2.908011497371     3.816591359890
H      2.036471483791     2.480413135169     3.606419964614
H      1.162796093425     3.963386445978     4.148410287224
H      0.572379203486     2.316164979495     4.641170091069
Pd     0.091018575681     1.550036499162     0.458812766797
C     -2.160191097056    -0.120371397751     1.885355536540
O     -0.833810748330    -0.004292801652     1.622040300564
O     -2.686268687330     0.216239047039     2.957935675990
C     -3.019103993974    -0.698306623779     0.704370120480
H     -3.656633624334     0.123652979350     0.358874509008
C     -3.900745358780    -1.846919313432     1.141991014445
H     -4.523432708942    -2.182861259845     0.287124408338
H     -3.266239223332    -2.692537928801     1.476892884378
H     -4.565069477503    -1.528840627301     1.972262071306
N     -2.215683294569    -1.151082538541    -0.427063013020
C     -2.061994880444    -0.427794270701    -1.563489423869
O     -2.606256836518     0.681142458535    -1.801685145823
C     -1.175113357741    -1.029861411651    -2.581095878933
H     -1.138597606475    -0.367174997218    -3.462846825901
H     -0.173970783412    -1.152450675983    -2.134666855002
H     -1.594452785473    -2.013377634423    -2.856791291681
N      1.938892527178     0.324746278109     0.497607511968
C      3.192621716947     0.873207969288     0.491677062757
C      4.298037624773     0.075711715431     0.268295989340
C      4.153292135126    -1.279335380155     0.061809356244
C      2.892030078241    -1.811358733748     0.110423665794
C      1.794018820755    -0.961441852339     0.360004221868
H      3.319133553180     1.931975638391     0.673264393322
H      5.279549423572     0.520121551480     0.257696106028
H      5.018859636778    -1.912280234273    -0.115228201117
H      2.707195525012    -2.860554161093    -0.006943666950
O      0.622172919595    -1.569999145236     0.445652280150
H     -0.105640808258    -0.943393969574     0.937399696031

