# STO-3G

title

0 1
C      1.557134205877     3.245154836195     0.030909425809
C      2.910321705703     2.939663376527    -0.290427077640
C      3.310265961014     2.859571353874    -1.627974016054
C      2.360495047546     3.040691760474    -2.670148239155
C      1.026311645462     3.329681823443    -2.367715861031
C      0.614761331009     3.462976481198    -1.012216427925
H     -0.156139593053    -0.237429985657     3.944383795745
H      3.619068864175     2.779274553071     0.515842940471
H      4.349205609591     2.655931939868    -1.876469077256
H      2.675695865808     2.964856242366    -3.708527060649
H      0.298045576629     3.477127168058    -3.161413647060
H     -0.374001556370     3.850619490213    -0.788163430982
C     -0.892557678392     2.483624365817     1.572306549313
H      1.294013707590     3.465421852938     1.057322750304
H     -0.278604391229     2.702650487914     2.448917636385
C     -2.196801860129     2.815141713104     1.499014887346
H     -2.700248230493     3.303809376102     2.324707541893
C     -3.033745059692     2.520984576626     0.326369589605
O     -2.471140649374     2.215315712880    -0.762676918010
O     -4.404503415816     2.824415288803     0.378752313129
C     -5.159131127333     2.497801684705    -0.796821807454
H     -6.226722204268     2.759583123519    -0.633760843272
H     -4.790861093596     3.071457755605    -1.677448971309
H     -5.098837874311     1.406632564138    -1.014306808120
Pd     0.001044320411     1.376413292326     0.170207907789
C     -1.362892960350    -1.026101476485     1.601430127856
O     -1.454028140474    -0.082779363662     0.649770550621
O     -2.354729066860    -1.629915037743     2.065481400127
C      0.090356498510    -1.289919687253     2.115789597044
H      0.786082125277    -1.166000601910     1.281715618301
C      0.263038743627    -2.667791882896     2.717238043182
H      1.314657562733    -2.803046371764     3.043756660260
H     -0.404014063990    -2.771449258909     3.598195990581
H      0.008083415528    -3.445844292251     1.968674021713
N      0.457259199330    -0.303022917284     3.140585043490
C      1.506950121079     0.542336096839     3.011200615595
O      2.222612276637     0.663904646326     1.982436965799
C      1.806643233495     1.364081614140     4.202897216887
H      2.659136632701     2.028096657679     3.976150037024
H      0.908424315807     1.947007740755     4.463350731313
H      2.065812860676     0.677383097408     5.028065774986
N      0.817437022954    -0.075321876806    -1.241031369015
C      2.163588060605    -0.229004594314    -1.435412699018
C      2.626003776537    -1.022001512384    -2.467676417752
C      1.741761288546    -1.668284823779    -3.304208821657
C      0.400130802011    -1.528089056606    -3.064273705869
C     -0.028424315055    -0.720799483121    -1.989653672306
H      2.865609146448     0.254122776164    -0.769466062156
H      3.687518184399    -1.131936249505    -2.614776217720
H      2.099825511927    -2.290385318818    -4.120100772311
H     -0.342510710727    -2.025837266496    -3.655233204110
O     -1.341337937598    -0.711171750375    -1.804362764662
H     -1.603751411571    -0.364719318404    -0.874413224492

