# STO-3G

title

0 1
C      1.288059270657     2.889982393584    -0.501334328910
C      2.449102419856     2.971049270149    -1.297394603299
C      2.651667573748     4.086319295634    -2.135080877787
C      1.696546300531     5.120129210954    -2.189286317227
C      0.536408618832     5.032387645470    -1.398868292553
C      0.330827566653     3.924763625235    -0.547290328214
H     -1.015082392983    -0.354719678278    -0.560850449551
H      3.166246450633     2.155538343027    -1.293409036687
H      3.548510017749     4.136936856218    -2.748930465756
H      1.852315788289     5.977109303624    -2.840145225324
H     -0.212492316388     5.820742547080    -1.436262889261
H     -0.576918698748     3.894535096413     0.048433213764
C      1.976637712152     2.373895653603     2.306274063372
H      2.517420813069     1.641741047780     2.904552280433
H      2.593998386161     3.089255642530     1.776273299315
C      0.600541637228     2.594769040411     2.475032268723
H      0.160314656840     3.467126096352     2.019868728125
C     -0.212400779938     1.987397660315     3.543645449868
O     -1.287536055065     2.553686985012     3.867387850007
O      0.353277524338     0.967707415061     4.330185937329
C     -0.516903874736     0.386896377892     5.312398316581
H      0.018037727968    -0.426238900511     5.848686193726
H     -0.840238874524     1.147551820992     6.058437376034
H     -1.416844204262    -0.060974267428     4.831553799966
Pd     1.074102033320     1.269229778911     0.651929017587
C      0.122325427292    -1.688148077024     2.176352725039
O      0.275842610876    -2.412293198507     3.157951159378
O      0.996495656365    -0.590080744138     1.987168874077
C     -0.914808194783    -1.863536980526     1.057671043773
H     -1.766062574410    -2.336103189926     1.565346620414
C     -0.411800115838    -2.804657951744    -0.016744609080
H     -1.195891671405    -2.933861949583    -0.791473944156
H      0.490379370047    -2.375248392154    -0.495393392998
H     -0.164874088436    -3.794727129217     0.419238367845
N     -1.339010116956    -0.621152847186     0.431072691019
C     -2.071900532897     0.221301972249     1.192601979232
O     -2.290021262474     0.054544738974     2.422092274158
C     -2.642982114431     1.384747036238     0.490769109625
H     -3.372698991875     0.998023855316    -0.240078703532
H     -3.137155802070     2.037808657384     1.232073199620
H     -1.832437758152     1.908758003878    -0.037850565726
N     -0.358721751874    -0.090881167145    -2.030065018587
C     -1.054853543356    -0.371161974285    -3.173002889189
C     -0.379690653045    -0.687322440536    -4.337259821955
C      0.997797438041    -0.724272792973    -4.359170710594
C      1.677974749241    -0.436285780303    -3.205491652078
C      0.950030980253    -0.105209951810    -2.035900365447
H     -2.138104614440    -0.352657789250    -3.158812256035
H     -0.940092795723    -0.909898529973    -5.229296996581
H      1.532134841009    -0.975986012278    -5.270975591531
H      2.746092761715    -0.444664990500    -3.152354426486
O      1.686646525455     0.153558047574    -0.983597744041
H      1.629043669553    -0.559020632403     2.739443089200

