# STO-3G

title

0 1
C      1.503429147004     3.567399063965    -0.020714396809
C      2.841519769263     3.276472336343    -0.420672059609
C      3.288116739682     3.579917678724    -1.710953326952
C      2.414334576554     4.185026782318    -2.647465412290
C      1.089812937179     4.467328372949    -2.286811485060
C      0.627306316256     4.155573474692    -0.984251821765
H     -2.672207616370    -0.487216251972     1.005637320387
H      3.517433876322     2.811848160265     0.293455732510
H      4.310636344318     3.345222666731    -1.996529702867
H      2.776815713009     4.429898147773    -3.643070309436
H      0.417316880962     4.945658441474    -2.994393433623
H     -0.369361206393     4.470695325128    -0.687777606809
C      1.052207619330     3.398024759451     1.441053573335
H      1.816676683546     2.822208093170     1.975269670878
H      0.970920031667     4.375582409500     1.935617437585
C     -0.289030199364     2.624934683338     1.393468505553
H     -1.128204451294     3.263751738328     1.114482055438
C     -0.670080087525     1.767418473557     2.537283224312
O     -1.847832558852     1.838481564827     2.976128382544
O      0.347440851476     1.134011951343     3.270957407559
C     -0.062788236262     0.450908416583     4.463962315038
H      0.824871822840    -0.005587861104     4.952198272971
H     -0.534221823039     1.155381455843     5.185709776089
H     -0.777278933704    -0.366829429343     4.229896959455
Pd     0.225507645818     1.677360003732    -0.376032518660
C     -0.298035478626    -0.978465791200     0.734274687125
O      0.964698786725    -1.146847801939     0.789632551560
O     -0.895783796116     0.011950205978     0.119323508869
C     -1.251972605900    -1.931498162302     1.476774854492
H     -0.803313699036    -2.214588623465     2.433867306287
C     -1.550695826273    -3.185204794281     0.684006919385
H     -2.209562783440    -3.847917774468     1.282702611954
H     -2.079435121660    -2.910304851478    -0.251587738879
H     -0.610439688024    -3.723459164825     0.444734141040
N     -2.502894374715    -1.211058489211     1.700735135262
C     -3.137775406645    -1.241933567096     2.900848302617
O     -2.779033506994    -1.949815445009     3.874682529040
C     -4.330293087176    -0.378780531635     3.043837904093
H     -5.174194361951    -1.022902926843     3.339371234330
H     -4.104492781760     0.357013302703     3.833380156185
H     -4.553002134212     0.139851462509     2.095451980390
N      1.096953450222     0.830000968879    -2.168512748202
C      0.703675192244     1.292982217099    -3.394983429253
C      1.453568216138     1.006041406715    -4.517686747311
C      2.599322688752     0.247615102459    -4.417212487275
C      2.961685734020    -0.221346734869    -3.182454373670
C      2.160287535046     0.083661929840    -2.060546837408
H     -0.189505825863     1.900691098004    -3.479698584019
H      1.139838647619     1.383190687351    -5.476900852615
H      3.196787859681     0.021188303722    -5.296286047286
H      3.834103024107    -0.825980590275    -3.034804093301
O      2.597596760598    -0.432148607715    -0.929324436146
H      1.908374046478    -0.602044169769    -0.149106480503

