# STO-3G

title

0 1
C      0.652912021477     3.869550384738    -0.175659396192
C      2.007238339902     3.412944956458    -0.194996972216
C      2.820351997192     3.625078811366    -1.341887126619
C      2.304502831217     4.283237613732    -2.461840228561
C      0.954202755448     4.722605883205    -2.462737542567
C      0.140551164971     4.507084929714    -1.346442135037
H     -2.655155138996    -0.411229190728     0.999141775377
H      2.473919205444     3.042003074192     0.716370272386
H      3.851644146165     3.280852645531    -1.329157999537
H      2.937724095413     4.464885943506    -3.326932929162
H      0.556671224911     5.243901240468    -3.330323675296
H     -0.886914407072     4.864227525423    -1.342711011473
C     -0.164902732785     3.798551422477     1.122644677039
H      0.377861435841     4.313603489658     1.925155428510
H     -1.120800273507     4.310859668323     0.984235198957
C     -0.397027376775     2.298015860962     1.415960426764
H     -1.437817514393     1.996500803201     1.338694332583
C      0.251035674729     1.662333515244     2.582523368418
O      1.460540215433     1.909828262590     2.822722013239
O     -0.472338327537     0.725397635384     3.332137687394
C      0.266325340026     0.003355163145     4.327326546443
H     -0.413633861185    -0.711666294294     4.842341596459
H      1.089485374115    -0.584015351138     3.860030753536
H      0.687540354608     0.694755628365     5.091307652072
Pd     0.446178021436     1.533060876097    -0.308954470736
C     -0.285444361686    -1.121045198201     0.709121452229
O      0.960155439849    -1.355772174574     0.856449526440
O     -0.774258989359    -0.125456713365     0.012298524387
C     -1.340366072984    -1.980446745935     1.430109463647
H     -0.923131743060    -2.342444216786     2.374142023527
C     -1.793099498141    -3.161187121696     0.600110838138
H     -2.524299705025    -3.758594045769     1.183179827094
H     -2.289070798682    -2.793142273160    -0.321308132890
H     -0.926169563851    -3.800752274346     0.334969680898
N     -2.497964716154    -1.128933320924     1.702195125091
C     -3.024233302820    -1.038658964111     2.952581370769
O     -2.705814340321    -1.764193718836     3.924865170514
C     -4.065798489802    -0.003438096245     3.119550333306
H     -4.874174524024    -0.221949327574     2.402030199631
H     -4.440385916840    -0.050346891465     4.156649041387
H     -3.606834909693     0.978182772416     2.916188083684
N      1.390772939259     0.737067515282    -2.083351943661
C      1.123542454296     1.296320161985    -3.303586704030
C      1.912747307900     0.989211029364    -4.393529346038
C      2.969214256711     0.114109750268    -4.266714964230
C      3.203865572912    -0.447428173572    -3.039519680550
C      2.366689788528    -0.116388418772    -1.951486133080
H      0.298592025307     1.990953987798    -3.408520727813
H      1.699293750295     1.441913119584    -5.347587905944
H      3.596468183649    -0.129878817205    -5.119976520423
H      4.001241358048    -1.144406515356    -2.874107124896
O      2.678853535439    -0.731974330189    -0.829206406047
H      1.956549055375    -0.856327752441    -0.072871287729

