# STO-3G

title

0 1
C      0.577652922710     3.757526754405    -0.218779234936
C      1.877755483586     3.211026730082     0.010271669463
C      2.904906585305     3.372375305246    -0.956808885672
C      2.655641370621     4.073100983820    -2.141234329925
C      1.365027311462     4.608348050221    -2.388227638349
C      0.341286551504     4.441261487609    -1.449619114566
H     -2.693674090379    -0.360386590631     1.178629893107
H      2.129072773856     2.784633784346     0.979736161496
H      3.887934584126     2.951283026491    -0.761580910589
H      3.450800953361     4.209413046287    -2.870359563052
H      1.176256347485     5.162125682422    -3.304827136290
H     -0.641576448217     4.870741977392    -1.631344867039
C     -0.475348097872     3.727936928864     0.898680607718
H     -0.078144237066     4.219284890503     1.795751417106
H     -1.362511003604     4.284408196250     0.584299010597
C     -0.831686693455     2.238389145010     1.123632481328
H     -1.879016350359     2.051440680212     0.894039286597
C     -0.483621464380     1.610545961123     2.409263753182
O     -1.213493805213     1.825426809345     3.410962650711
O      0.773393356673     1.001497422666     2.529524774031
C      1.014727488069     0.320749565799     3.769343513681
H      2.018451328355    -0.155764421599     3.739329443522
H      0.990780390745     1.031879901083     4.625960638341
H      0.259348555740    -0.482071459034     3.937124218704
Pd     0.230140087888     1.430344304854    -0.439854064968
C     -0.412507330154    -1.243329366680     0.576821753383
O      0.828782350206    -1.526136455377     0.639468634645
O     -0.934995863186    -0.274464010055    -0.134823944139
C     -1.418194684773    -2.000994902017     1.462410546303
H     -0.897259482044    -2.390760312596     2.340296463805
C     -2.098026224885    -3.139731145799     0.734060786892
H     -2.785318390914    -3.661912857563     1.431601283254
H     -2.689870215549    -2.734056144386    -0.111956546273
H     -1.343131292046    -3.860001258396     0.356997941972
N     -2.440818396977    -1.043114353853     1.886791779704
C     -2.814204591960    -0.945739727728     3.192331383919
O     -2.338166422037    -1.647865180964     4.116766615999
C     -3.871785064192     0.038624893565     3.509736625408
H     -4.711505771562    -0.513967667009     3.961721689636
H     -3.447751528017     0.751002798638     4.237468869319
H     -4.202859393003     0.567974548779     2.600455545569
N      1.342197962952     0.714766181931    -2.145291556834
C      1.126733241174     1.330266544687    -3.348843481111
C      1.981937401198     1.101595273069    -4.407664222730
C      3.055756208697     0.250508531959    -4.266764826521
C      3.240682458237    -0.366934668840    -3.058375781615
C      2.335662759104    -0.117274899646    -2.002986226016
H      0.289609868096     2.008535146884    -3.464198250373
H      1.807402296258     1.597836448967    -5.347858189873
H      3.735143530415     0.068318170560    -5.095162765792
H      4.048228914461    -1.049748145191    -2.884260428913
O      2.603744745609    -0.779362025599    -0.898931314656
H      1.829427961541    -0.974872528781    -0.199801680067

