# STO-3G

title

0 1
C      0.673689158928     3.875584516786    -0.101359676070
C      2.073659736315     3.604613378651    -0.030347888290
C      2.940791455172     4.009666802255    -1.079348012650
C      2.433688562404     4.694285070917    -2.189953851667
C      1.039844344033     4.941739257922    -2.287832283226
C      0.175070845042     4.522256319148    -1.271428025526
H     -3.373803750308    -0.273204271207     1.326978384547
H      2.512719580887     3.224051751246     0.889818732336
H      4.006697147934     3.813056500005    -0.990015661904
H      3.104946510317     5.041139847485    -2.972120751268
H      0.643266846285     5.471512653393    -3.150735285981
H     -0.890799410996     4.726457805090    -1.343854480233
C     -0.228652227636     3.651160804109     1.124649781143
H      0.152902392172     4.236826080452     1.970372117356
H     -1.236970510715     4.008577031777     0.896782889454
C     -0.268425365058     2.134699876831     1.400294802566
H     -1.259062939652     1.712226932671     1.270327520588
C      0.406684708870     1.558255845292     2.580870146885
O      1.595472971039     1.888265701203     2.826707180268
O     -0.232555767703     0.533785459243     3.292327578479
C      0.553774314479    -0.130226456442     4.291720506995
H     -0.057271311249    -0.926369761517     4.772174721078
H      1.444096544749    -0.618138854603     3.834568603957
H      0.881569890063     0.583286559910     5.080703443585
Pd     0.726901544765     1.504369926918    -0.291125498700
C     -1.306681299431    -0.553185730438    -0.013733643866
O     -2.016656267526     0.317405916533    -0.586752694454
O      0.009083901411    -0.431933663541     0.150597149324
C     -1.966857033576    -1.721295243358     0.750405504653
H     -1.224278599253    -2.300489679407     1.302234557611
C     -2.788792032403    -2.628866127675    -0.136082979702
H     -3.250560962235    -3.424767135782     0.483998173597
H     -3.596728600385    -2.039054200022    -0.617205426462
H     -2.146550354218    -3.092034797123    -0.912340623427
N     -2.862061079556    -1.062681496404     1.708993095765
C     -2.758950123348    -1.302493948553     3.045763851408
O     -2.031925025672    -2.186468465308     3.558479872899
C     -3.583312060858    -0.455292170799     3.936385579343
H     -4.226843249646    -1.127474150221     4.527372538092
H     -2.889395805096     0.093475909290     4.593598850733
H     -4.199906292405     0.248573232328     3.351255698630
N      1.748457377656     0.677339729085    -2.052944050656
C      1.968476329460     1.430493447434    -3.174928925979
C      2.807519041339     0.966763753459    -4.168614101229
C      3.421475236656    -0.260817362693    -4.049841763865
C      3.158558453519    -1.011430903470    -2.934617888585
C      2.285405924258    -0.503964879679    -1.949595051529
H      1.474292152863     2.384621304832    -3.288456838382
H      2.976982652565     1.571673578193    -5.044246145858
H      4.083458441318    -0.631155586057    -4.828231276016
H      3.582605430222    -1.985239392773    -2.789544276362
O      2.067663673025    -1.337545649937    -0.941624615287
H      1.260444576021    -1.089234754431    -0.362535738953

