# STO-3G

title

0 1
C      0.205604736319     3.426312533311     0.569132637037
C      1.551802692105     3.402984281048     0.094061230277
C      1.871408421541     3.917084788623    -1.189425827544
C      0.870895179386     4.471867933406    -1.996748586426
C     -0.474272662225     4.486786066319    -1.544809712563
C     -0.801444062100     3.957836095542    -0.291942793271
H     -1.575070684067    -0.873829698037    -0.357741172348
H      2.363045468394     3.123923021774     0.763961716415
H      2.906636545272     3.905676502157    -1.522205443104
H      1.126228651743     4.903135517851    -2.961976641316
H     -1.249534513914     4.929133553297    -2.165915150234
H     -1.826509786885     3.996278558380     0.069836290805
C     -0.112489371704     3.100396430760     2.041006415973
H      0.456694705851     3.773624338046     2.692585876758
H     -1.178548477472     3.262587718734     2.218107201271
C      0.202961311171     1.611425094941     2.269899504841
H     -0.691069907943     1.049084517815     2.508869495720
C      1.347500775648     1.177843748356     3.093512318019
O      2.470856953811     1.712433524850     2.908772022687
O      1.201676463320     0.017792766223     3.867534837409
C      2.412336854365    -0.562851843126     4.371002226262
H      2.165397557432    -1.479012479248     4.950706410026
H      3.082724594615    -0.863961299450     3.533631151462
H      2.946454031036     0.146142180345     5.043045198786
Pd     0.576269132310     1.102529964121     0.311802206038
C      0.035125614541    -1.777067334753     1.581998022703
O      0.512821529846    -2.780145285121     2.145176396021
O      0.768701944552    -0.937716381294     0.831064916339
C     -1.483266614981    -1.418113860058     1.683984898358
H     -1.644306032454    -0.846841175652     2.605683528267
C     -2.361351640518    -2.649741999864     1.732256033192
H     -3.424617085998    -2.346580229570     1.826947834050
H     -2.234259073644    -3.230078754889     0.795815421195
H     -2.087705240348    -3.284383916395     2.600866704808
N     -1.925532083840    -0.599006980238     0.553044223570
C     -2.640364880372     0.546625275795     0.685244560773
O     -2.948750076057     1.091707813728     1.773095648237
C     -3.064800700276     1.168925743040    -0.586068045981
H     -3.682690732612     0.432610785645    -1.128505534477
H     -3.658552129679     2.070897637798    -0.356912732992
H     -2.166167754437     1.427592322565    -1.169425641575
N      1.011428842438     0.507329639824    -1.777455906598
C      0.581201893790     1.248830334457    -2.844633375872
C      1.142339602227     1.064751248217    -4.092169629509
C      2.133905602060     0.127702137913    -4.282454619676
C      2.533969089288    -0.620237513048    -3.207773829689
C      1.930132293590    -0.406961945991    -1.949906730708
H     -0.209028471492     1.974772069720    -2.711667272394
H      0.797110662887     1.658813211860    -4.922159747177
H      2.579404261127    -0.022041492163    -5.262395170730
H      3.287654701221    -1.378405153064    -3.288197143959
O      2.374565778749    -1.201287606944    -0.997020758710
H      1.809117699251    -1.186914816545    -0.111621870011

