# STO-3G

title

0 1
C      0.647149380227     3.724865131980     0.166414374690
C      2.062030270235     3.543951311953     0.089583806805
C      2.794534086904     4.047083371230    -1.019507833083
C      2.139924610368     4.741199063915    -2.042898624400
C      0.729803992174     4.897298859840    -1.994605399476
C     -0.002829197341     4.379612248213    -0.921692938867
H     -3.943898405848    -1.514195386679     0.834914752659
H      2.617060844447     3.172134386129     0.948314095769
H      3.874656787701     3.920261132468    -1.040645567101
H      2.707213615883     5.163899105977    -2.868939255831
H      0.217184157997     5.433032395173    -2.790379948217
H     -1.081969049861     4.510119413715    -0.883987552264
C     -0.116968089188     3.392141974018     1.459326059026
H      0.218541336812     4.054298539323     2.268209414432
H     -1.184869661387     3.569515997151     1.302549171487
C      0.099702520643     1.895232733576     1.750962534370
H     -0.826279331368     1.338944906392     1.786404235484
C      1.000863031088     1.429479549992     2.828546368879
O      1.985196281324     2.141909835767     3.157794073126
O      0.905168345455     0.092757882081     3.247631458683
C      1.839450477872    -0.320686909974     4.254156430272
H      1.652429686347    -1.385243967304     4.513099694263
H      2.886358679207    -0.232031806333     3.885002160282
H      1.718435851371     0.287200636798     5.179403737132
Pd     0.876716643657     1.359313676473    -0.084485886332
C     -1.162889691454    -0.633710577119     0.282241870510
O     -1.825643978571     0.144253230355    -0.443656918643
O      0.170560800610    -0.601052111526     0.397693803684
C     -1.854641749693    -1.633759443214     1.247817571031
H     -1.296833112184    -1.596829947497     2.188829735691
C     -1.858019083014    -3.054355835891     0.726840472969
H     -2.348309649492    -3.717184157451     1.469514025831
H     -2.428017696278    -3.098567686578    -0.223864947644
H     -0.818797887026    -3.402971632684     0.555324904884
N     -3.232003822857    -1.217709519670     1.489770192884
C     -3.472754838698    -0.120035923247     2.257995980820
O     -2.589418507648     0.539809890995     2.855941521635
C     -4.890010013800     0.280969002554     2.372103675709
H     -5.448446156180    -0.573798070682     2.788898168373
H     -4.956038537246     1.155789350367     3.041292770485
H     -5.255882518911     0.534703273724     1.362078306065
N      1.627365560556     0.611778536127    -2.023864233890
C      1.741366466032     1.428031047301    -3.117050892842
C      2.407874326913     0.990004762442    -4.244387890724
C      2.950178514805    -0.275524301295    -4.289352967211
C      2.791518883613    -1.087337807966    -3.197571333603
C      2.093199740169    -0.602263726084    -2.071442903811
H      1.298897590263     2.412525010127    -3.102466331724
H      2.494992243126     1.644594603773    -5.096003184723
H      3.474328934038    -0.626626817419    -5.174327037953
H      3.163423915689    -2.092260413043    -3.175050693914
O      1.955282450909    -1.491857212431    -1.097647815949
H      1.255958795206    -1.225561349577    -0.388342407722

