# STO-3G

title

0 1
C      1.966049865807     2.572009916854     0.659639147160
C      3.181316165820     2.209856199415     0.003627975449
C      3.584239829087     2.847717870113    -1.171767078332
C      2.785589118679     3.869152238050    -1.748245626290
C      1.584114698211     4.237206907238    -1.136633872032
C      1.160857712472     3.593048030432     0.058581394617
H     -2.854311693824    -2.039008487897     1.282169496972
H      3.795877743126     1.421880573381     0.431782447011
H      4.513331674678     2.551680524397    -1.652789174774
H      3.114496868516     4.362313104850    -2.659887611270
H      0.974587180237     5.034008750601    -1.556053662349
H      0.303865703622     4.001536606857     0.585712066136
C      1.588461204418     1.969728178867     2.026295357899
H      2.240839506570     1.114095443454     2.224953464806
H      1.745512281954     2.703315477621     2.827952901876
C      0.134662894227     1.459593729461     1.892074308759
H      0.022362125195     0.421474825794     2.176484561901
C     -1.004568809363     2.247479343770     2.410758277383
O     -2.163423440291     1.769477298140     2.317103534901
O     -0.800009530376     3.575860472547     2.823840550686
C     -1.962515159546     4.274727967793     3.291242864745
H     -1.675165836662     5.303350707832     3.599349754345
H     -2.728685104582     4.354203115476     2.486824409295
H     -2.405492732445     3.759625617276     4.173940545131
Pd     0.193904562772     1.328829871393    -0.178829968777
C     -0.145035733620    -1.482400193739     0.343322517803
O      1.120280239266    -1.550627916781     0.136916924534
O     -0.900513570972    -0.476425664263     0.005642064423
C     -0.824088197100    -2.641514373471     1.108248364043
H     -0.089177655599    -3.001996723894     1.834200266628
C     -1.225229934769    -3.782992157656     0.199446371008
H     -1.672798418432    -4.596695292328     0.806823129367
H     -1.979073941799    -3.426828953358    -0.532080861476
H     -0.337706492053    -4.174933060294    -0.339005869185
N     -2.007719021745    -2.178434263570     1.820302429675
C     -1.866702598783    -1.500177891418     2.993873819403
O     -0.767312628655    -1.279671128619     3.558136240443
C     -3.122857963370    -1.036832696142     3.617505729233
H     -2.879801854704    -0.516235266263     4.559236270728
H     -3.611596985298    -0.344640900684     2.910917990776
H     -3.757878042054    -1.918940598527     3.806056089892
N      0.648666339381     1.099404944382    -2.287722435805
C      0.082286107278     1.952857903957    -3.195208325207
C      0.530634803450     1.975624961796    -4.500181205386
C      1.545799403904     1.136621052511    -4.904080952262
C      2.087233858942     0.281414075730    -3.981719219317
C      1.596426230808     0.284390789439    -2.657153506848
H     -0.710750379924     2.621738807803    -2.882160932370
H      0.081898574020     2.655967813598    -5.204854299489
H      1.905431106956     1.150081698634    -5.929468379215
H      2.875980031084    -0.400283752286    -4.229579729410
O      2.196099591159    -0.581227891477    -1.865605883758
H      1.744119257834    -0.871798650729    -0.953829180047

