# STO-3G

title

0 1
C      0.679800990230     3.593835898386     0.254762407376
C      2.048081922781     3.192152327423     0.350641398302
C      3.016625726292     3.715865299435    -0.549730919200
C      2.644091280138     4.639052126700    -1.532161738396
C      1.282004747047     5.018976411809    -1.656860816149
C      0.317207511140     4.489043237223    -0.794071484273
H     -4.160259734035    -1.455226450689     0.974695570706
H      2.399124325714     2.624969570005     1.210404627956
H      4.056164520368     3.414688550544    -0.440749134553
H      3.392449763565     5.067338325369    -2.194893553402
H      0.988154781798     5.734418950552    -2.421659649786
H     -0.724110813748     4.788647658309    -0.890010243569
C     -0.332915995548     3.185053874034     1.335901137713
H     -0.141631497548     3.732765418512     2.268102237793
H     -1.341459792126     3.441841347968     0.999446555571
C     -0.231808972901     1.657574180716     1.468159238517
H     -1.183045062653     1.164456487846     1.359671214573
C      0.541566158474     1.007804951821     2.545523104206
O      1.000813201006    -0.135344738319     2.290779197438
O      1.161198725351     1.819473596235     3.512215624574
C      1.860512479668     1.151120361287     4.576279735980
H      1.492741772502     1.534825513915     5.552542519581
H      1.725759024838     0.044133905538     4.581034788169
H      2.946401216353     1.374941107125     4.503655892650
Pd     0.691138856394     1.240199829305    -0.330419432454
C     -1.600382547568    -0.664268039525    -0.111191784123
O     -2.402660454534     0.196602425272    -0.540195791567
O     -0.281808194904    -0.633983580632    -0.306086289850
C     -2.070043492523    -1.801341728793     0.841451530242
H     -1.285229978167    -1.936816720595     1.591431047262
C     -2.310361136720    -3.112264839948     0.125710239879
H     -2.627412744280    -3.880105603677     0.861319630935
H     -3.116255585201    -2.981490017229    -0.625289072732
H     -1.381252124506    -3.449914396707    -0.378013228285
N     -3.304220465526    -1.402735094282     1.512559182117
C     -3.260543864949    -0.560574479771     2.582103743406
O     -2.211054326920    -0.124825273866     3.114026742789
C     -4.574573379430    -0.156737436663     3.123837255954
H     -5.113981622036    -1.074089762150     3.413723998119
H     -4.411139664605     0.494129647265     3.999747643719
H     -5.120430175506     0.384931376400     2.331885363224
N      1.647844084326     0.654454114533    -2.232172017228
C      2.035262891459     1.586447327829    -3.156904692059
C      2.832676352676     1.218414412951    -4.222185921290
C      3.235588161119    -0.089970371545    -4.375175293257
C      2.808942679953    -1.010933484847    -3.455747324378
C      1.986623038573    -0.593669219497    -2.387088349352
H      1.706158721337     2.610562506622    -3.059318944110
H      3.134475808361     1.962743607074    -4.940579518597
H      3.862407134593    -0.386501756218    -5.212033480880
H      3.065213262489    -2.049290460233    -3.526959126148
O      1.601234995487    -1.579700996764    -1.591420032420
H      0.834444198302    -1.329340028305    -0.946939319678

