# STO-3G

title

0 1
C      0.424362976070     3.769157302070    -0.180517698965
C      1.790858421632     3.424888939368     0.053265742548
C      2.798700084697     3.808028055555    -0.872046062213
C      2.465175141220     4.536811682159    -2.019250532635
C      1.107559617851     4.857720658857    -2.277411802634
C      0.105287716593     4.463837584480    -1.384060383777
H     -3.575174999232    -0.252718859622     1.661364096464
H      2.097985670395     3.006671337615     1.009592079843
H      3.835017070541     3.554888617844    -0.660381832418
H      3.242174985493     4.861123461045    -2.707545802833
H      0.845037599028     5.422638920753    -3.168942380670
H     -0.933057904973     4.721028996194    -1.581504939589
C     -0.639283533769     3.518735757207     0.900008015558
H     -0.451633789158     4.150436222795     1.778991995192
H     -1.624121102714     3.783268070332     0.505417696088
C     -0.606346424669     2.006807343295     1.199867904829
H     -1.595503385469     1.572072149461     1.117525418883
C      0.072569374072     1.498915306002     2.404102158774
O     -0.253766621754     1.948539837285     3.532852081941
O      1.259315092046     0.775367509204     2.214308706450
C      1.836867844426     0.214969956648     3.401698016725
H      2.750761863530    -0.357643366237     3.133639139612
H      2.123899563981     1.014005015480     4.122391126673
H      1.125636987447    -0.488801620181     3.893560514216
Pd     0.467114045414     1.359762490256    -0.420106568562
C     -1.694737431809    -0.650032715576    -0.113247958747
O     -2.462405350853     0.144383033252    -0.711741717630
O     -0.367975623826    -0.529876070005    -0.082934042770
C     -2.249923036774    -1.700241693386     0.882374069901
H     -1.437460430054    -2.291275883704     1.308485483467
C     -3.307634482208    -2.599923290281     0.285131931378
H     -3.680483791326    -3.295833057362     1.064657334323
H     -4.156052052699    -1.983271143427    -0.078265415189
H     -2.882455630460    -3.183151072561    -0.556708571207
N     -2.861795232435    -0.909972541544     1.958488372250
C     -2.329234233155    -0.876870353592     3.214221433112
O     -1.302879229286    -1.502833841372     3.565581878592
C     -3.034849634566    -0.042567774896     4.212294380569
H     -3.332694127374    -0.704003672174     5.042375532326
H     -2.324216190584     0.720385565771     4.572053784218
H     -3.924963330121     0.437765122420     3.770523735142
N      1.643781498636     0.525953853065    -2.066354874587
C      2.029406151006     1.284767898423    -3.138414112934
C      2.959398366194     0.796797812808    -4.034588317490
C      3.499277791017    -0.459874200608    -3.868219714231
C      3.075052765780    -1.212212420428    -2.804994800662
C      2.115303717792    -0.678996898833    -1.918777722170
H      1.597067545080     2.264162253494    -3.288483062033
H      3.258866395557     1.405395509809    -4.871995235698
H      4.231686603004    -0.849701391603    -4.570248014866
H      3.437475394789    -2.205399490132    -2.628128444923
O      1.752071739144    -1.512085153960    -0.954552411345
H      0.904121274117    -1.231535594906    -0.449935945817

