# STO-3G

title

0 1
C     -0.331552807010     3.681834226549     0.471663697571
C      0.415350523406     3.892848441065    -0.726483506993
C     -0.243582112773     4.195589000679    -1.942378988930
C     -1.636715009509     4.320544516985    -1.977003003524
C     -2.389020424923     4.152644632377    -0.789806809276
C     -1.746059269394     3.831831729097     0.410878923862
H     -3.309729848131     0.158669250977    -0.981503722707
H      1.502084035484     3.924039242314    -0.694275138981
H      0.342814086437     4.331379489315    -2.846581272432
H     -2.140217446945     4.553228501396    -2.911753802354
H     -3.468930313134     4.280729088063    -0.811263093083
H     -2.318898472739     3.724901606431     1.329967059740
C      0.379790288769     3.459947538088     1.820454066654
H      0.987943046702     4.338907470532     2.066180207848
H     -0.382988461130     3.348364405932     2.597220678076
C      1.202449120985     2.151023222240     1.734695287855
H      0.857127610610     1.397389321741     2.438372427823
C      2.678726296668     2.174505438526     1.682876625061
O      3.255254522818     3.020918713264     0.952175146138
O      3.388379406622     1.126734388384     2.290235207545
C      4.794241857185     1.072472985644     2.012707694845
H      5.239934255294     0.205542730364     2.546706140334
H      4.975842248270     0.934416987555     0.922506710907
H      5.305087684346     1.998363729458     2.361958869492
Pd     0.414646874545     1.497039210713    -0.052411649033
C     -0.692955820000    -0.476129052435    -1.912839899580
O      0.044647194688    -1.195641020735    -2.635945703601
O     -0.672626373163     0.839683973913    -1.827715707604
C     -1.699142319652    -1.197394858862    -0.918803557357
H     -1.096215414848    -1.635101445838    -0.116301381797
C     -2.483863019443    -2.309321298279    -1.580677153035
H     -3.153868787153    -2.788157519904    -0.837145816066
H     -3.097511973426    -1.888325149648    -2.402602991706
H     -1.792087867854    -3.073197676199    -1.992579183656
N     -2.665332871736    -0.267310222350    -0.325669247581
C     -2.607466521279     0.236237926855     0.912032902520
O     -1.692946619582     0.040236058983     1.766659429119
C     -3.755542540026     1.072143896903     1.312692629129
H     -3.851096773687     1.898959789483     0.589954043815
H     -4.654953675363     0.434346441426     1.276835490450
H     -3.595735944873     1.456224261614     2.335874241218
N      1.504835211071    -0.259052284882     0.092727059605
C      2.454584650746    -0.407326776948    -0.885187664843
C      3.380584844878    -1.425761557414    -0.796270641073
C      3.334507083405    -2.323533487450     0.246698595883
C      2.351311574321    -2.174976322031     1.189138972616
C      1.426551020111    -1.116728670904     1.069303584234
H      2.494485508075     0.294524015593    -1.710522545026
H      4.124912396677    -1.531580118273    -1.568384819376
H      4.052261311945    -3.136670446971     0.313476597842
H      2.250208268340    -2.848525379374     2.016377534899
O      0.503678676597    -1.100736090711     2.010481385339
H     -0.370544096129    -0.559146653423     1.862376777501

