# STO-3G

title

0 1
C      0.245947326418     3.766218553838    -0.161770314066
C      1.587419922910     3.523654683269     0.268167095989
C      2.687229022871     3.959517628586    -0.520980652481
C      2.470747567974     4.634333791436    -1.727234903941
C      1.143348084662     4.840156756966    -2.184412115633
C      0.054958089124     4.397935098504    -1.425198751010
H     -1.523755855570    -3.050610343561     1.017417525053
H      1.793095224598     3.164929743109     1.274291985108
H      3.698386618768     3.792500940029    -0.155947544757
H      3.311775043167     5.000284901710    -2.311582373899
H      0.969582072922     5.356761719280    -3.125821811888
H     -0.960291230713     4.563546577319    -1.778310800040
C     -0.949062414946     3.470811138914     0.759476621757
H     -1.004217561926     4.209759583881     1.570529814704
H     -1.872338085019     3.536145119099     0.177851832535
C     -0.783634553437     2.020108694641     1.233372706121
H     -1.670799711888     1.418944198715     1.119967917996
C     -0.126063214363     1.684636898961     2.511425719244
O      0.560995311228     0.629908116865     2.535157459503
O      0.107397408411     2.708228816985     3.446384404609
C      0.848917043916     2.331147375148     4.614852394159
H      0.947942947376     3.210943558406     5.286761571319
H      0.322396054490     1.524546080704     5.173870830105
H      1.872432609459     1.987150089066     4.342138115026
Pd     0.450461113358     1.349334686179    -0.269484538254
C     -1.998659464069    -0.382027174396    -0.552632041294
O     -2.587142251102     0.587632196555    -1.073229240351
O     -0.684285960379    -0.410687497576    -0.287802464701
C     -2.693768077050    -1.707847595334    -0.119931237172
H     -2.505577779570    -2.449744285227    -0.908173419890
C     -4.190250177256    -1.566994748199     0.060849258499
H     -4.616603217591    -2.535996711130     0.392468871878
H     -4.407356071183    -0.796840331762     0.828842902866
H     -4.663717163422    -1.267368821528    -0.896678153158
N     -2.101606010795    -2.225636116319     1.117523262991
C     -1.957062146821    -1.468763411534     2.241314936194
O     -2.442163044501    -0.322695573550     2.401936777197
C     -1.178851855845    -2.093383167237     3.331350468296
H     -1.160964139899    -1.404628037476     4.193018454384
H     -1.671139665089    -3.043534122210     3.595859844194
H     -0.153338562570    -2.266685144507     2.960142631782
N      1.787160045504     0.412992081438    -1.778198633270
C      2.503021995038     1.155892727857    -2.677972865942
C      3.513673170678     0.570687041573    -3.414670321132
C      3.804847530936    -0.767345546327    -3.263748508499
C      3.055065229433    -1.497749564530    -2.380835572442
C      2.025317143701    -0.861656948623    -1.654594466487
H      2.270073433959     2.200503148817    -2.819774663963
H      4.072563881722     1.167833977897    -4.116287063371
H      4.598498363483    -1.234305322723    -3.841000918083
H      3.211790234119    -2.547268517532    -2.229425390641
O      1.339085598856    -1.678244601221    -0.865625742182
H      0.454414244752    -1.264856028814    -0.506188400379

