# STO-3G

title

0 1
C      0.079636658573     3.425624550688    -0.069926748038
C      1.504799852427     3.464697425916    -0.160163592867
C      2.140002000335     3.873869702350    -1.362634738760
C      1.373766447559     4.250015952848    -2.471065992075
C     -0.042669570109     4.178245432684    -2.407646294098
C     -0.676964349661     3.758234785496    -1.234570727470
H     -1.188296655976    -0.866612948134     1.930935686657
H      2.113604626799     3.337293952950     0.733405724321
H      3.225712536634     3.921778451765    -1.398054677997
H      1.860306061180     4.602684330715    -3.377293120894
H     -0.637909708253     4.469698318183    -3.269575619689
H     -1.763066516364     3.732868785495    -1.181866798616
C     -0.604132074726     3.221488284303     1.291502235035
H     -0.239590477936     3.974325348254     2.000542594360
H     -1.683190646506     3.361199334711     1.180783582469
C     -0.309120293155     1.771940359062     1.728037514673
H     -1.203602725721     1.166654697061     1.783395683698
C      0.605549552872     1.490426102063     2.855843028679
O      1.705458707732     2.097440547028     2.914011573614
O      0.279781420647     0.473080127336     3.765861018546
C      1.280079401943     0.160063494911     4.745088076306
H      0.909606648476    -0.657262325544     5.401063197284
H      2.217128332528    -0.190566231345     4.255011620674
H      1.503370463355     1.045095402642     5.383136529350
Pd     0.626254245601     1.134972952346     0.002417475579
C     -0.598799827669    -1.540058226440    -0.286796382508
O     -0.280610158016    -2.251024676463    -1.253952337993
O      0.306283923856    -0.910664053617     0.528178067093
C     -2.078574307155    -1.300424551184     0.103744937813
H     -2.638131223063    -2.223959629419    -0.087214014579
C     -2.695828830135    -0.185613336638    -0.722725739757
H     -3.782780901487    -0.119044956761    -0.509725483762
H     -2.226192398567     0.783095211413    -0.468362173199
H     -2.563179737894    -0.394203314183    -1.804973631885
N     -2.116041590717    -0.939489551615     1.520229914270
C     -3.244265121821    -0.891541066230     2.269285593335
O     -4.412195135875    -1.011885232793     1.828898014103
C     -3.026448849537    -0.663484754102     3.714277683469
H     -4.005768112012    -0.669776611845     4.224152701538
H     -2.388894414954    -1.481263095121     4.090184531665
H     -2.525146261368     0.309501894037     3.845513763095
N      1.740481208083     0.384886728943    -1.734460177433
C      1.716017343216     0.948877105204    -2.981207414308
C      2.693440584676     0.634068296999    -3.904436106822
C      3.687878962447    -0.267627840946    -3.591104216628
C      3.669355663825    -0.849613521784    -2.351245697278
C      2.643744319757    -0.509825859513    -1.444952681241
H      0.928997935097     1.643188128595    -3.242859586583
H      2.668291151901     1.090066973585    -4.880230998854
H      4.455911463064    -0.524764293743    -4.315698697986
H      4.388135267210    -1.586708550635    -2.053865011199
O      2.672571763840    -1.170991778881    -0.298204435224
H      1.745052273648    -1.161882736879     0.173704877429

