# STO-3G

title

0 1
C      0.690193715300     4.202825209222    -0.640181329247
C      1.964976923753     3.768912820178    -0.167029694664
C      3.085509956492     3.738715111979    -1.036130384314
C      2.954460630481     4.147706846467    -2.369368393488
C      1.687408015936     4.551846491095    -2.861851571129
C      0.572385301393     4.562498346477    -2.015928993157
H     -1.203172454731    -1.299127946830     2.339178368091
H      2.116974973105     3.588566418258     0.895915399467
H      4.051515534011     3.426029411002    -0.646653901629
H      3.822867029880     4.161934681824    -3.023957510562
H      1.583941339363     4.867803048013    -3.897107682464
H     -0.394071341416     4.890815567867    -2.391951696636
C     -0.459648494038     4.460185928007     0.353465969919
H     -0.107746956086     5.137649226391     1.141366637609
H     -1.284404117494     4.950142847766    -0.170885781616
C     -0.922784769478     3.092975594655     0.892539042105
H     -1.919704630353     2.809716445638     0.574382918849
C     -0.667301259126     2.698251458279     2.293946901128
O      0.453195440286     2.955854784465     2.805188394481
O     -1.603713602844     1.883343875535     2.949760308617
C     -1.183182926773     1.326015256266     4.203022855934
H     -2.000272881679     0.699327994910     4.621439603050
H     -0.290652759658     0.673874854425     4.064428256872
H     -0.947892738141     2.129128273485     4.937657779895
Pd     0.258860422828     1.911781736419    -0.303993936992
C     -2.102742597836     0.114065161721     0.179610635748
O     -2.777339522352     0.895079412048    -0.525154754062
O     -0.793856124048     0.281350670602     0.438620235655
C     -2.703837207518    -1.136120086748     0.873515420585
H     -3.069007291686    -1.808861805169     0.089558338143
C     -3.852452053108    -0.782968551361     1.792189828185
H     -4.264232516706    -1.710867101021     2.240127620971
H     -3.486275374091    -0.124626336593     2.604789486393
H     -4.653450191525    -0.265483944514     1.224791452755
N     -1.696800070219    -1.852399919331     1.648296832963
C     -1.147771529232    -3.001546932955     1.152825132893
O     -1.545048471405    -3.579122279220     0.114905018972
C     -0.027658153821    -3.591386618723     1.916755741551
H     -0.308622918075    -4.626677679713     2.170339352819
H      0.855450566627    -3.580006372456     1.256405690096
H      0.172522971026    -3.011104469891     2.833534816939
N      1.505069102144     0.520025564136    -1.482633827656
C      2.071244861846     0.875384003178    -2.677402582240
C      3.042491306722     0.077625910377    -3.249411974905
C      3.441231641548    -1.089389140833    -2.634372221125
C      2.838952009902    -1.439144222689    -1.454817358564
C      1.842987863517    -0.599975928502    -0.913193606678
H      1.750993871108     1.778880536322    -3.177764114607
H      3.483880702170     0.369886534574    -4.187967403557
H      4.202369195059    -1.723535534555    -3.081230789455
H      3.080116740081    -2.346145511703    -0.937657034155
O      1.293331174919    -1.055524957698     0.205271669662
H      0.395300843953    -0.595764342671     0.430498251558

