# STO-3G

title

0 1
C      2.083326330789     2.670687478081     0.827170415180
C      3.316270872226     2.139714167895     0.340812314822
C      3.918901063451     2.654369078464    -0.810082309053
C      3.312536577492     3.717625178037    -1.526217751426
C      2.098247304466     4.250258656436    -1.081784051431
C      1.472606645822     3.729537036085     0.082280162977
H     -2.931546614502    -1.839484478630     1.339444633287
H      3.787700837774     1.323541585287     0.882305522153
H      4.855682503219     2.230011943629    -1.162279566786
H      3.795909362904     4.115249760906    -2.415447721475
H      1.635231228815     5.080588190535    -1.609512801880
H      0.607638939813     4.252823777878     0.480177431667
C      1.498313854947     2.218728774060     2.178712218748
H      2.102196685684     1.394237670881     2.568296854850
H      1.542869717229     3.041861391758     2.903673757858
C      0.067993921760     1.697711668333     1.895390790555
H     -0.076407624087     0.675854053337     2.221031374030
C     -1.124735088906     2.516081756326     2.212196336654
O     -1.020649831894     3.769324291753     2.267753295495
O     -2.379537783341     1.891180873849     2.286762072251
C     -3.498078085513     2.755282725551     2.535847097786
H     -4.431295798148     2.152858134765     2.569856270543
H     -3.384983136538     3.277409751943     3.513152695318
H     -3.605535456077     3.509478807714     1.723435416867
Pd     0.343647705161     1.494009229683    -0.147128296702
C     -0.166121232595    -1.293098907246     0.345977104057
O      1.099446976295    -1.418873266677     0.175168215731
O     -0.866669552387    -0.246804879054     0.012334174852
C     -0.905762610166    -2.449184213612     1.057515290581
H     -0.178341009261    -2.889449466713     1.746631421339
C     -1.380302408607    -3.514023946165     0.092183991497
H     -1.864481359508    -4.335918729919     0.659165936996
H     -2.121184774943    -3.076123365569    -0.607477390466
H     -0.522128403464    -3.922669225593    -0.480471613399
N     -2.051699289946    -1.973260815751     1.821266288207
C     -1.853777259553    -1.349932205087     3.015418347222
O     -0.727436786102    -1.132833053115     3.523858362829
C     -3.079182538968    -0.951200766433     3.737248081676
H     -2.789109495538    -0.445120389450     4.673976537798
H     -3.646102984690    -0.269232708512     3.084340950943
H     -3.661898957773    -1.864254456338     3.947285407224
N      0.920718161874     1.231555612669    -2.224160442954
C      0.447395708950     2.123444513173    -3.148150764602
C      0.964226318901     2.137859320694    -4.427652160934
C      1.956443406611     1.253516547203    -4.789649408969
C      2.405131668276     0.361892608728    -3.852220363258
C      1.846508271490     0.375733047875    -2.554934545125
H     -0.326682028516     2.828153063895    -2.867893085848
H      0.588575597213     2.848648129006    -5.144973918026
H      2.370196168196     1.260588804401    -5.794491080034
H      3.171624545764    -0.355360631028    -4.067359973276
O      2.356706112993    -0.527392118609    -1.744216570298
H      1.833419704849    -0.787781985102    -0.860978165747

