# STO-3G

title

0 1
C      0.384584910977     3.944391319711     0.142295581263
C      1.295896399651     4.664559212750    -0.669117666020
C      0.838784279226     5.555488966378    -1.653852943611
C     -0.543850384351     5.747749167311    -1.845272736079
C     -1.462214821004     5.049825918743    -1.035384288372
C     -1.005988940465     4.160182007564    -0.045612308815
H     -0.337179111138    -1.615082105749     0.442178621761
H      2.364996551092     4.519188539769    -0.524850214355
H      1.553469365821     6.098270019230    -2.267195170183
H     -0.901310407696     6.434648914883    -2.607917853778
H     -2.530239551194     5.198793449198    -1.170097053786
H     -1.730838472807     3.657228759624     0.589236903455
C      0.928192897058     3.039612729007     1.183111647310
H      2.425983921315     0.732997020351     1.120281037565
H      1.966653622660     3.240334730071     1.442075213825
C      0.186372124112     2.180115321833     2.004940626034
H     -0.876441001365     2.048220393103     1.853883859351
C      0.697273603501     1.678291189372     3.290696030070
O      1.939297888067     1.511257947030     3.422459764087
O     -0.209975839567     1.187222321210     4.241661642541
C      0.365165299495     0.610677812000     5.422931682167
H     -0.448483858333     0.268812727337     6.099033125731
H      0.995178504952    -0.272023100013     5.168069857648
H      0.979763786841     1.359946160141     5.971872102951
Pd     1.155808641148     0.954696537017     0.315365022097
C     -1.650034266258     0.550816064436    -1.605375173603
O     -0.650194531298     1.350143342234    -1.017878362561
O     -2.433347273329     1.045274440906    -2.417597435905
C     -1.513139992183    -0.915161875826    -1.178995741227
H     -0.660794470995    -1.324089377512    -1.738604502815
C     -2.748796058888    -1.721195308040    -1.520909818824
H     -2.595601051474    -2.777415940147    -1.216140744772
H     -3.623534814764    -1.312850913115    -0.973445174949
H     -2.946362917728    -1.683597855551    -2.612179135777
N     -1.218524149890    -1.090771409252     0.238353554238
C     -1.903320270651    -0.455129469145     1.209426297932
O     -2.709798625414     0.499440546143     1.027050577331
C     -1.675092530869    -0.977091370574     2.570116361086
H     -0.591803582462    -0.973536606893     2.770663982095
H     -2.222261309260    -0.346641365865     3.292092989385
H     -2.051375820579    -2.014304700449     2.594988110796
N      2.028260730536    -0.382393390117    -0.980954763195
C      2.818052704227     0.048546373645    -2.009969302752
C      3.581415912991    -0.852758483143    -2.717896810746
C      3.551096872667    -2.195169631652    -2.410325744723
C      2.750174219218    -2.613758311361    -1.382376444205
C      1.972232519116    -1.677528453303    -0.656109265983
H      2.844684865389     1.101765375242    -2.264666707147
H      4.200821622080    -0.503571316020    -3.527876188342
H      4.147277920019    -2.908048708782    -2.973800035827
H      2.673599736829    -3.644555369037    -1.099807193023
O      1.233967521399    -2.145514343744     0.278752096447
H     -0.820302665205     2.305483688251    -1.189533852005

