# STO-3G

title

0 1
C      2.007897844897     0.770267066834     1.076900227601
C      2.439191864404    -0.583419708292     0.943304562942
C      3.553060452420    -0.890347479154     0.109284292146
C      4.215168742854     0.134620745042    -0.574990253313
C      3.777611252617     1.482729866786    -0.455577421536
C      2.692150171004     1.797976272895     0.363646738278
H      0.956656745414    -2.186275021287    -0.507643516711
H      2.045415929110    -1.337253206179     1.618063355355
H      3.908429532354    -1.915500105919     0.040438476457
H      5.080168521225    -0.093916066984    -1.193472152692
H      4.294665473979     2.270273171719    -0.998189196799
H      2.355631416472     2.826316568306     0.469633800026
C     -0.613882717750    -0.684367206274     1.586113296978
H      1.327808667281     1.034321011593     1.876514756820
H     -0.491938638491    -1.754343994851     1.779138278833
C     -1.357679222428     0.091738493788     2.403692574853
H     -1.847462097511    -0.352550305374     3.262622595186
C     -1.607816923171     1.531088986548     2.221616456680
O     -0.778623909465     2.227194204588     1.576273373652
O     -2.621352578417     2.134036690696     2.986165166684
C     -2.821913132583     3.535904548489     2.755119772446
H     -3.656983418468     3.899539174822     3.391485288610
H     -1.907612337930     4.115954707172     3.016084055324
H     -3.087320108776     3.726536631706     1.689626696816
Pd     0.184690148269    -0.102821520226    -0.146738284484
C     -2.686543549998     0.426325131663    -1.471789548965
O     -1.778106517222     1.084177636495    -0.766475794035
O     -3.596482247614     0.925806616672    -2.173611571129
C     -2.613371045062    -1.135965037697    -1.357446059735
H     -2.991047528256    -1.517785020239    -2.316774467913
C     -3.518451542569    -1.633180720179    -0.247374986884
H     -3.469899582429    -2.736822139172    -0.170625538203
H     -3.200361837337    -1.195030144568     0.718183400647
H     -4.567816951456    -1.332554549947    -0.450050901761
N     -1.247157554886    -1.583822997015    -1.063397996469
C     -0.679903758204    -2.679509316403    -1.405893201481
O      0.604185187852    -2.949461986906    -1.052696106861
C     -1.327538942358    -3.711300546971    -2.231364151513
H     -2.229603596126    -4.068046542808    -1.710107511276
H     -1.574902007275    -3.263388862702    -3.208051517910
H     -0.623876136080    -4.551839918986    -2.377016969950
N      0.943038244699     0.553673358538    -2.085931296563
C      1.838597984473    -0.206601426894    -2.788117970933
C      2.466741241158     0.311273381061    -3.903792426060
C      2.201617797014     1.596039020015    -4.321985037403
C      1.291401708414     2.334693085435    -3.615313688311
C      0.657935807889     1.766092717194    -2.487500367297
H      2.066755336990    -1.213244830534    -2.462809813355
H      3.175505150196    -0.295924502398    -4.441059730116
H      2.696773310291     2.010822639692    -5.195665872496
H      1.026554235045     3.334915574885    -3.892907766762
O     -0.217741418837     2.551719344622    -1.904384075933
H     -0.958826285143     2.035457097992    -1.305031590942

