# STO-3G

title

0 1
C      0.176027299516     3.162898904586     0.113185427196
C      1.429310562106     3.819660804371     0.176301020027
C      1.524213102776     5.213190428199     0.017412406995
C      0.372780825588     5.986683003060    -0.227559155514
C     -0.877331506046     5.346718591360    -0.322587572381
C     -0.969558867559     3.953445328732    -0.157597279462
H     -2.742968050243     0.129869681253    -1.297525754297
H      2.335922074402     3.235146149569     0.308565415082
H      2.499223502333     5.692826460610     0.070007653886
H      0.450350796913     7.063746509254    -0.355788164848
H     -1.773834278170     5.928522902113    -0.525911415348
H     -1.945234635754     3.473929665861    -0.232693230214
C     -0.018721135565     1.696511363682     0.309582061653
H     -2.015222825764     0.407842813817     0.792161695367
H     -0.891984087446     1.341467315589    -0.246024865332
C      0.426072740868     0.870692444648     1.390229423674
H     -0.155655476827    -0.002526437134     1.653533397278
C      1.347592305110     1.302663409227     2.445213261310
O      2.534273758766     1.540101261164     2.094644482868
O      1.059535733398     0.906851612365     3.760917826282
C      2.057195394535     1.221626569677     4.742634554774
H      1.707541266518     0.884976961072     5.742873793381
H      3.014571296537     0.698103186198     4.519210054283
H      2.235720945896     2.319988355947     4.789083172402
Pd     1.543211864225     0.395640658058    -0.384553444068
C     -1.679903647626    -1.477693014440    -0.756713704129
O     -1.965266083217    -0.398279733975    -1.577019500084
O     -0.716723130171    -2.198052356787    -1.029881155247
C     -2.557426514901    -1.635819850939     0.496608481462
H     -2.091062823497    -2.388391956788     1.140717555060
C     -3.968647721018    -2.083263531992     0.164398274777
H     -4.525611682331    -2.302807744454     1.098410409682
H     -4.499607939476    -1.275519219847    -0.379133454174
H     -3.945488179903    -3.000420592657    -0.459533441550
N     -2.612363735318    -0.321699338481     1.170113518555
C     -2.956269927653    -0.256108856835     2.497756164833
O     -3.386125730422    -1.224176647284     3.156740348996
C     -2.798468075967     1.056550255299     3.162419091665
H     -3.778716600772     1.329928472495     3.587276610684
H     -2.054703543082     0.932256545892     3.967182488285
H     -2.468031887592     1.831245347070     2.447688392397
N      2.718399004884    -0.153673650232    -2.048737830010
C      3.898161780009     0.521675343097    -2.225286779077
C      4.695756433050     0.248277579200    -3.316818622275
C      4.314691707223    -0.700035079260    -4.240990531681
C      3.130993579127    -1.359376706050    -4.040335589768
C      2.347586169685    -1.050707083629    -2.909197556703
H      4.203508916656     1.271807419712    -1.504474626946
H      5.621290534430     0.785591940214    -3.448267646079
H      4.935460810662    -0.918162060728    -5.106211545319
H      2.772016423138    -2.105356631531    -4.722556104863
O      1.226068636335    -1.754769064895    -2.844182317939
H      0.627950316491    -1.633794415740    -2.054333682905

