# STO-3G

title

0 1
C      1.504016811785     3.545811754575    -0.790277180001
C      2.814850521294     3.261672875628    -0.319370752163
C      3.897718060041     3.222064660013    -1.229743916178
C      3.679258020195     3.498577509876    -2.589309653795
C      2.371580790716     3.766703830397    -3.069296097653
C      1.291234684988     3.781511293034    -2.178239237861
H     -0.634121683617    -0.730961027474    -0.314845068742
H      2.995200568560     3.157714392397     0.746208025150
H      4.900097088382     3.012013309122    -0.866724391985
H      4.518666455789     3.509660514264    -3.281024514629
H      2.211081489092     3.976173663088    -4.124092235648
H      0.284469679659     3.999956912305    -2.527857608142
C      0.436875461061     2.170167153551     1.659394923339
H      0.720276587241     3.791888308565    -0.078030638937
H      1.173847944884     2.066968161518     2.457689370398
C     -0.838517123907     2.567061913252     1.860606943583
H     -1.205265725486     2.775546037013     2.858213076360
C     -1.843918018272     2.629521612835     0.786327205034
O     -1.466109130714     2.516850297319    -0.412380736372
O     -3.181379500095     2.908568988715     1.110229638060
C     -4.107144086943     2.878770021882     0.014839968923
H     -5.130098385126     3.093900780885     0.391899192852
H     -3.846919013145     3.649199451224    -0.745807763447
H     -4.118200464516     1.873300683715    -0.465684067919
Pd     0.918202173319     1.351564868223    -0.105503049638
C      0.882713640071    -1.068111242099     1.769524909768
O      0.173587574014    -0.371312527160     0.854897466995
O      2.124619068657    -1.132253221129     1.827900369775
C     -0.060108143666    -1.679599004558     2.850297145962
H      0.565025042520    -2.059817543864     3.662630034153
C     -0.916980902178    -2.804014289714     2.312131774664
H     -1.595738565553    -3.172312470078     3.108484153586
H     -1.528471829153    -2.437938455338     1.458319242721
H     -0.274653548270    -3.638501391092     1.962052571236
N     -0.944722417759    -0.588219309957     3.272932401869
C     -1.095261998539     0.022080812995     4.476505668441
O     -1.695997557300     1.117547248500     4.615296220087
C     -0.546093337214    -0.662372166471     5.665982388773
H     -0.836411029571    -0.084480441290     6.562576993868
H     -0.984643737850    -1.673429745362     5.715168691183
H      0.553875133495    -0.693453342401     5.586571599167
N      0.962652585738     0.176950864656    -1.979817048698
C      1.870456915475     0.400704492937    -2.978060666040
C      1.659388605918    -0.114714342281    -4.242531267268
C      0.539639465670    -0.872128935825    -4.508765609881
C     -0.336917821573    -1.115292292072    -3.486274807904
C     -0.076670234552    -0.575067902966    -2.206053566250
H      2.763576441931     0.971231517315    -2.772193001237
H      2.379707486966     0.075610853205    -5.019836858726
H      0.366096509148    -1.281861466232    -5.499882193927
H     -1.213434960838    -1.717525342919    -3.608105280213
O     -0.960920948910    -0.923944865170    -1.277843532195
H     -1.284973939482    -0.040071422313     2.486402179210

