# STO-3G

title

0 1
C      1.646975626255     3.032497301117    -0.591833496344
C      2.888408899691     2.619918717864    -1.120585886148
C      3.780496402506     3.575191537081    -1.649977456972
C      3.437361426316     4.941513458821    -1.665960301677
C      2.192806441778     5.350084429515    -1.150898053472
C      1.296800426655     4.400444429607    -0.613909940748
H     -1.512129711689    -2.765180017350     0.800224716009
H      3.157572246190     1.566259668424    -1.136985204638
H      4.735968284166     3.246618458078    -2.054158413036
H      4.127803768311     5.674429923186    -2.077107436996
H      1.915716812411     6.402646223320    -1.163326785257
H      0.337191009651     4.737691069106    -0.225981994513
C      1.472188070851     1.734476633036     2.093971663503
H      1.396322183456     0.705261266286     2.424922280829
H      2.457167464780     2.040813662170     1.760306302055
C      0.433702419448     2.653460990047     2.225324062186
H      0.601723198980     3.685625217860     1.958413801508
C     -0.819399271563     2.392259958889     2.955750246827
O     -1.715197494719     3.277177200780     2.944125235092
O     -0.930482358971     1.244778761477     3.761478181817
C     -2.222447914060     1.007697058983     4.335789074290
H     -2.192938518811     0.070861824578     4.932659443861
H     -2.516711404988     1.842913594743     5.011065531961
H     -2.989538391845     0.884495726048     3.537798999444
Pd     0.364522234950     1.695582575979     0.142823537481
C      1.201603070183    -2.065928728724     1.262352441744
O      1.495734609749    -0.921346559243     0.640540729016
O      1.793809285801    -3.161230492880     1.158729566830
C     -0.104553319251    -1.880031969887     2.114595232403
H     -0.065592670030    -0.908860651380     2.610197647852
C     -0.345179870963    -2.970136295351     3.134368188833
H     -1.301066949994    -2.778520798614     3.663473041681
H     -0.405035258103    -3.952003077209     2.620780776089
H      0.485606721146    -2.991616397997     3.868724014198
N     -1.237990240766    -1.864130588424     1.172943347480
C     -1.709890339637    -0.740575626027     0.606781785218
O     -1.322729563970     0.429415914813     0.889387784170
C     -2.786016998244    -0.880884671536    -0.397660650739
H     -3.077415426837    -1.938378734544    -0.518261218230
H     -3.648038621855    -0.291448118194    -0.045063178927
H     -2.409500113046    -0.482064783078    -1.355314070133
N      0.030180249139     1.113089928739    -1.822394615698
C     -0.807820325562     1.878252863894    -2.585767691034
C     -0.988628227022     1.584159924174    -3.919746062884
C     -0.317673113247     0.532046283332    -4.501507679135
C      0.526529460191    -0.213229298045    -3.722761382264
C      0.693660250592     0.105649026803    -2.354936713395
H     -1.339059966238     2.708523111057    -2.135196295513
H     -1.653727402894     2.190841614925    -4.512056092505
H     -0.451939409782     0.300414582310    -5.554794213294
H      1.083302495080    -1.039568930594    -4.118146146254
O      1.531030541701    -0.654240560984    -1.723350942711
H      1.612926492978    -0.790532578337    -0.522714520375

