# STO-3G

title

0 1
C      0.212440510661    -0.509140727202     1.270436032590
C     -1.040743625131    -0.726382244041     1.881057865804
C     -1.132092978524    -1.502438266450     3.057142533987
C      0.024728714613    -2.057866493441     3.634687780245
C      1.277396807151    -1.842543430661     3.026546050052
C      1.371223339669    -1.075025317801     1.848129770162
H     -1.459852692639    -0.538390325808    -1.327746364257
H     -1.951118308598    -0.307404519220     1.456631199738
H     -2.104194560016    -1.662435031936     3.519326213992
H     -0.048465494377    -2.648429770083     4.544910275807
H      2.176241657832    -2.272127275069     3.464071126932
H      2.345097851378    -0.934497493677     1.382263119464
C     -0.725874579106     2.228316800560     0.264973125889
H     -1.410190942631     1.876199393602     1.028803691771
H     -1.167255384368     2.556904152852    -0.668403720137
C      0.618693505036     2.499086663091     0.547937538098
H      1.215600168196     2.991306692061    -0.206771880499
C      1.221520631935     2.448173811151     1.891972873155
O      0.493611225649     2.275010091289     2.904175309256
O      2.616438332015     2.573010395992     2.003975793025
C      3.148550999563     2.435873591816     3.329445296219
H      4.253816499328     2.546345871242     3.297813180915
H      2.739786977402     3.222736084325     4.003744351072
H      2.909573796120     1.431570045228     3.749274685256
Pd     0.465276859439     0.481321610075    -0.461790333447
C     -3.194915132682    -0.163950443714    -2.842964007675
O     -2.591993592997     0.743289453882    -2.063452735900
O     -4.066944083328     0.026540937306    -3.710560116708
C     -2.664177482990    -1.628306463133    -2.550596295359
H     -2.538703149657    -2.134901609606    -3.512697831452
C     -3.609724835585    -2.420840806374    -1.678438708934
H     -3.198030103849    -3.436314811773    -1.508889713971
H     -3.717969700054    -1.911439702143    -0.698275867332
H     -4.602936616310    -2.501693509042    -2.166837503293
N     -1.405485730274    -1.448968648424    -1.818808384794
C     -0.192169000645    -1.962496133860    -1.931599751444
O      0.837730104167    -1.414956775795    -1.388475109358
C     -0.008028001268    -3.206692741241    -2.693693992444
H     -0.662162744511    -3.975897708693    -2.249852693328
H     -0.273529818294    -3.010078550580    -3.744724024986
H      1.049845433261    -3.518023210519    -2.621161369087
N      0.895694593622     1.404793374304    -2.368619447677
C      2.190497873467     1.160960837715    -2.743534874671
C      2.726005946053     1.796221916017    -3.844107991046
C      1.964585785134     2.669566995785    -4.587125907817
C      0.664099037424     2.876890473355    -4.214143483582
C      0.136766822007     2.197706005396    -3.091169647000
H      2.802770712889     0.486256437047    -2.156302652867
H      3.750007144666     1.605713096963    -4.120516196769
H      2.382271056493     3.174556214731    -5.454113644354
H      0.012438598799     3.528400287449    -4.762014985914
O     -1.122475473080     2.448491587823    -2.857445870074
H     -1.883750495502     1.664327246143    -2.459216693236

