# STO-3G

title

0 1
C      1.294237573202     2.831124227576    -0.637388209203
C      2.605344702456     2.777770524081    -1.155024332564
C      3.176698533172     3.929154171799    -1.733970006306
C      2.446899300524     5.132667757475    -1.805887491255
C      1.137198016316     5.179372791288    -1.293531602579
C      0.557309143062     4.031246300323    -0.709611372946
H     -1.637795111804    -2.425433855690     3.104818077173
H      3.168187154191     1.848647094618    -1.120194575281
H      4.189053645486     3.879212963099    -2.130034039690
H      2.893072058042     6.018617869358    -2.251621336419
H      0.564634680732     6.103859788726    -1.336412369633
H     -0.452448218643     4.094195681304    -0.309201908512
C      1.620568753383     1.808893205891     1.980469708339
H      2.110625470728     2.750071296536     1.764181995295
H      2.228002232293     0.908983427101     2.013229806585
C      0.300815220005     1.732847281544     2.411517364689
H     -0.044628823985     0.774183483857     2.765349647543
C     -0.574740977898     2.879223987547     2.706344834916
O     -0.231028397193     4.038597658583     2.358124828829
O     -1.857880678080     2.624633482081     3.219673058546
C     -2.674429101461     3.777993210464     3.467805613251
H     -3.653996425293     3.454839628625     3.881833220128
H     -2.190452362335     4.453153997059     4.210059605268
H     -2.863544306383     4.341085329764     2.525669424613
Pd     0.403806404477     1.214855824465     0.133437081902
C      1.162744858359    -1.954843524770     1.484637230083
O      1.750237917698    -2.122549733803     0.320953975928
O      1.483841810093    -1.132711878894     2.382825420018
C     -0.064375170090    -2.892415086041     1.754618118902
H      0.224692950962    -3.585046972759     2.554807663308
C     -0.530881308489    -3.687204954908     0.551866186177
H     -1.413849854493    -4.298870448478     0.829415479605
H     -0.814421002349    -2.992254088942    -0.265285926062
H      0.279577642415    -4.357528294387     0.198885214499
N     -1.204022944553    -2.101228956613     2.250570415354
C     -1.638265683349    -0.959643585673     1.693081569165
O     -1.109325034481    -0.392721918874     0.698174829569
C     -2.838903645583    -0.357997077269     2.307168586929
H     -3.108812404740     0.558353595010     1.754517682286
H     -3.653168369503    -1.099608341068     2.249663594483
H     -2.606718782825    -0.116172435787     3.359461488423
N      0.452772774917     0.496126787116    -1.801500077585
C     -0.483853290747     0.863228516713    -2.726656286144
C     -0.319783336458     0.511321418768    -4.050101306527
C      0.785109755199    -0.206665534868    -4.451764567383
C      1.710067768455    -0.566711858491    -3.507446023044
C      1.515673054874    -0.197030168002    -2.155594082863
H     -1.352359729705     1.432776696523    -2.417425203528
H     -1.060745664835     0.808237521888    -4.773361408097
H      0.920488826365    -0.480827128867    -5.494498530019
H      2.591983476700    -1.121160699052    -3.756165091530
O      2.445401013466    -0.564709073463    -1.327053654128
H      2.173572144436    -1.298655445604    -0.342098940005

