# STO-3G

title

0 1
C      1.510333078177     2.747354236805    -0.575263268821
C      2.804232656636     2.460213474877    -1.059354192645
C      3.570476471900     3.476716227072    -1.664995531095
C      3.051864696796     4.780347362183    -1.798435931343
C      1.758926289738     5.062731607762    -1.319966387433
C      0.986461420824     4.050105784464    -0.709401501287
H     -1.459454870320    -2.654636734763     2.837649828456
H      3.212993546132     1.456449769839    -0.972345415911
H      4.568190699782     3.245252022276    -2.032820980567
H      3.646746423047     5.561595454787    -2.265878796475
H      1.347683972862     6.066230403610    -1.412484154186
H     -0.007196098257     4.294095219356    -0.338204161195
C      1.514643554809     1.984016693631     2.117454410554
H      1.889703513149     2.973076068474     1.886897036426
H      2.233288069269     1.171637261569     2.176972929692
C      0.204858118859     1.752641074917     2.506747548636
H     -0.038663175199     0.771839480074     2.882870626843
C     -0.841361294006     2.774165138611     2.669639766751
O     -0.690693894953     3.905642846289     2.137877207570
O     -2.080001196887     2.383017412946     3.206475848458
C     -3.082696096774     3.406152407570     3.282604718657
H     -4.006028932420     2.984266516494     3.735153302308
H     -2.738426885784     4.251046926359     3.921629399862
H     -3.336661801131     3.789145098151     2.268157711897
Pd     0.385283427772     1.288147541161     0.206281360151
C      1.380112335584    -1.494757687578     1.928834525385
O      2.097630596550    -0.983082831612     0.950643439479
O      1.488177449594    -1.140558572056     3.133833750127
C      0.287951733160    -2.599842789905     1.647134240235
H      0.558270499124    -3.431866589186     2.307485472583
C      0.176433294393    -3.124809896843     0.231860158270
H     -0.516714185686    -3.990950821867     0.217290464784
H     -0.238191673630    -2.343252761437    -0.433720381506
H      1.169463865348    -3.452246189673    -0.138947571971
N     -1.040177556653    -2.131636610620     2.080592326175
C     -1.650885381407    -1.012100982011     1.658279409226
O     -1.185243236161    -0.189490039369     0.825270924651
C     -2.984916390134    -0.750185118191     2.233284526926
H     -3.388817423120     0.181554936656     1.800294692705
H     -3.632954783597    -1.608078607939     1.988016504628
H     -2.872574926992    -0.642906789407     3.326701128324
N      0.224407855538     0.627818622453    -1.737749862954
C     -0.596174851966     1.298836751799    -2.601624315719
C     -0.658277077430     0.923358491054    -3.926781494609
C      0.104957941704    -0.123068208570    -4.393549287169
C      0.922746851750    -0.778733697998    -3.511829982429
C      0.971644927330    -0.370157149449    -2.158758311542
H     -1.200116370478     2.123189097292    -2.240800382491
H     -1.306594954241     1.459243217605    -4.599950645063
H      0.061539302029    -0.420290972204    -5.437890850209
H      1.546251710038    -1.595018299040    -3.816083045321
O      1.788159972634    -1.051703228488    -1.419160011309
H      1.901575039440    -1.017228110961    -0.218603415887

