# STO-3G

title

0 1
C     -0.184348645234     0.379861882456     2.950622278292
C      1.138620961858    -0.111023162499     2.745689479652
C      1.543675892510    -1.328031524769     3.356903120583
C      0.647013287007    -2.034521398352     4.168707292556
C     -0.672969631456    -1.549852965900     4.372075640749
C     -1.085791687351    -0.359063075062     3.768719744264
H     -0.467557369166     1.372638570263     2.611531797060
H      1.863729217391     0.502416461485     2.217225491760
H      2.560352177834    -1.685544984895     3.216808798641
H      0.962683386478    -2.952744653636     4.658586254040
H     -1.360957793781    -2.104003779214     5.005965480774
H     -2.092913024481     0.018331092700     3.924348278333
C     -2.684301153304     2.223391999766     1.637879474296
H     -2.616420885224     2.500049136963     2.689905962521
H     -3.274174544765     1.343933549645     1.395526956711
C     -2.049180276547     2.907841004805     0.658207660100
H     -2.166117169540     2.582462106571    -0.365283179984
C     -1.172168430708     4.071456149708     0.863841160157
O     -0.953418401565     4.500812681627     2.029691926166
O     -0.569807834906     4.666976803508    -0.260217299404
C      0.308416494801     5.767660883587     0.012261399888
H      0.718651663697     6.158133398279    -0.943498101240
H     -0.239586787997     6.594602029962     0.518736328947
H      1.160333221205     5.442730197649     0.652155136615
Pd    -0.221524661637    -0.147066721311     0.626773024883
C     -2.349646344858     0.704817594459    -2.788988010798
O     -3.104139668062     0.881664761614    -1.685725769386
O     -2.654876990901     1.183098112895    -3.895388419202
C     -0.980606026493    -0.050518276462    -2.631808202323
H     -0.400483856832     0.240619460787    -3.519782471014
C     -1.126009458040    -1.552864578699    -2.653345522344
H     -0.127501706805    -2.026310128474    -2.552468489034
H     -1.763984287770    -1.887182100495    -1.816447532714
H     -1.586401103638    -1.877373970583    -3.609722760628
N     -0.279494886800     0.320281953864    -1.409776035009
C      0.447227357334     1.393961333718    -1.202375603564
O      0.852377767478     1.577203561635     0.042357720560
C      0.791819991826     2.370396976245    -2.247419343639
H      1.379874783543     3.180950467354    -1.780549374344
H      1.389413064062     1.860371096490    -3.020332903316
H     -0.142578188469     2.787399210401    -2.664537536126
N     -1.335166875493    -1.804323796190     0.861220137848
C     -0.771630131593    -2.977490869858     1.275948415445
C     -1.574751707551    -4.059743338393     1.564955601602
C     -2.943923803194    -3.970554772283     1.444491451178
C     -3.490083726693    -2.789814494548     1.014721154317
C     -2.652587755163    -1.688730242374     0.713807963774
H      0.304285495428    -3.056071959808     1.372972796508
H     -1.123072130784    -4.979767087255     1.896584706740
H     -3.577803995126    -4.821828420077     1.677931442275
H     -4.546911713721    -2.663904517352     0.891413383525
O     -3.228486538605    -0.630191408968     0.291120921298
H     -3.007732692831     0.266685591797    -0.855092650427

