# STO-3G

title

0 1
C      1.257962165249     2.769143580276    -1.051026007479
C      2.579966221885     2.793261028768    -0.557180327999
C      3.527088707955     3.625103239713    -1.192850867872
C      3.162001442091     4.417494560618    -2.299064303665
C      1.839517765296     4.380454580807    -2.781652355878
C      0.880066116581     3.552577610818    -2.159311151094
H      0.993060630363     0.047488093170     1.431557850229
H      2.872479232930     2.169999430077     0.287836358610
H      4.547782497781     3.649195351065    -0.816801223018
H      3.898672601147     5.057764157475    -2.779230887196
H      1.549725388907     4.989455256693    -3.636009520229
H     -0.138854934612     3.526537099966    -2.543715097714
C      0.093986305658     2.675734371295     1.744473752744
H     -0.165635732344     1.969475289821     2.527052564025
H      1.131474780056     2.983269132917     1.724911419260
C     -0.882835662032     3.301070630272     0.970356690574
H     -0.606348107482     4.104850852894     0.304880038167
C     -2.333064080485     3.117132242069     1.159898822074
O     -3.117970411321     3.654079178486     0.335832955596
O     -2.812005913777     2.346141180417     2.235286731436
C     -4.234321649760     2.171219565417     2.294513456769
H     -4.493147299935     1.552049769728     3.179912706385
H     -4.750570832893     3.153133142134     2.394666991277
H     -4.605596574485     1.648773699277     1.383490558715
Pd    -0.050392330177     1.528779600682    -0.188769419917
C      2.548058734458    -0.121125819509     2.891747193567
O      2.462352595328     0.635597433585     1.820786554040
O      3.435880768590    -0.181907045892     3.777751011408
C      1.270831808440    -1.105739189946     3.036251662672
H      0.864939341802    -1.023594691535     4.050024771668
C      1.631659694946    -2.540439348390     2.727377708429
H      0.742977986550    -3.190807118390     2.841785203427
H      1.999541555727    -2.606817623040     1.682093396413
H      2.427813479379    -2.886045111447     3.418956981498
N      0.361434187023    -0.609924924009     1.994718341672
C     -0.926159844712    -0.607482083320     1.782768459525
O     -1.458559867824     0.127085826518     0.843387230238
C     -1.813766497628    -1.413092381857     2.632539702024
H     -1.540036796141    -2.473334023693     2.508089946835
H     -1.678275120060    -1.084602064458     3.676142484137
H     -2.860172261441    -1.249477895633     2.317152077967
N      0.169567407248     0.119721118679    -1.767439832017
C      1.331172775489     0.022293492846    -2.491349204469
C      1.359275859097    -0.712996101570    -3.659610625933
C      0.231463566111    -1.363662754335    -4.106212463710
C     -0.907646868219    -1.279281576177    -3.350880445210
C     -0.894066781439    -0.529028678930    -2.156562453938
H      2.232587050371     0.515574476941    -2.151287086296
H      2.276274944393    -0.773580824612    -4.222762543288
H      0.249039792229    -1.940957772257    -5.026819293994
H     -1.813545563171    -1.778960452815    -3.630125956137
O     -2.036120397915    -0.559186777595    -1.491465505748
H     -1.971671522329    -0.247239571512    -0.517763733137

