# STO-3G

title

0 1
C      1.359770764745     2.596660515250    -1.202469682554
C      2.722811990979     2.423766770333    -0.880387502047
C      3.690042241407     3.141363840194    -1.617028014771
C      3.304166492557     4.013823483293    -2.653808790124
C      1.939905757791     4.173030548394    -2.964677816043
C      0.959231683082     3.461561554210    -2.239768366658
H      0.973594900814    -0.199073773887     1.225375089328
H      3.027180508029     1.737429208478    -0.089994862861
H      4.742809725233     3.014448698611    -1.373367106321
H      4.057347535889     4.564882538763    -3.212602545480
H      1.633955636922     4.844834958527    -3.764554183980
H     -0.093183217258     3.586325643684    -2.491546704446
C      0.553677825853     2.593281742107     1.711390698640
H      0.313916927555     1.909446734513     2.519906128997
H      1.609738692047     2.769380424906     1.553624884256
C     -0.428802232151     3.356191082994     1.081771336719
H     -0.141906083420     4.133840793166     0.390211291029
C     -1.851548330940     3.355471798549     1.467670953113
O     -2.663876131328     4.009895989462     0.764042397931
O     -2.276116829560     2.627452276547     2.594936935559
C     -3.687946643710     2.634691667084     2.847832748075
H     -3.903113127739     2.034224123888     3.757464888356
H     -4.054076806491     3.672121849044     3.022374984115
H     -4.243767090752     2.184831331205     1.993694070563
Pd     0.004231111730     1.523636713927    -0.200143114965
C      2.633867609069    -0.389104798997     2.601047391618
O      3.530947412491    -0.386933261040     3.478902590146
O      2.590838890425     0.201860473289     1.431674981597
C      1.281939045356    -1.218920315169     2.917678266308
H      0.979828115357    -1.035255540317     3.953528462788
C      1.458157824895    -2.699474054318     2.674152683833
H      0.512375656074    -3.234246932350     2.889840981391
H      1.734090592918    -2.864388659607     1.611606832350
H      2.262023402147    -3.095762245096     3.328571185659
N      0.338283634322    -0.687913458806     1.926184027417
C     -0.947905270439    -0.463478340243     1.886802455770
O     -1.473711654547     0.315830610749     0.982533099367
C     -1.827864912773    -1.062826434750     2.899264010797
H     -1.729564122974    -2.159034344388     2.833319431961
H     -1.513799142371    -0.691884952742     3.888680519913
H     -2.870348201695    -0.758239596576     2.695553711074
N     -0.163265618172     0.140087861967    -1.808891391017
C      0.879760796204    -0.091675490878    -2.670163142494
C      0.669180346748    -0.793092521120    -3.840481520287
C     -0.580767581212    -1.277454920283    -4.152610406398
C     -1.599520128662    -1.063317918114    -3.263114003260
C     -1.342945255140    -0.352932276019    -2.071810811670
H      1.873681613183     0.268093073003    -2.437938005625
H      1.495898544477    -0.959871541876    -4.511640509267
H     -0.750894670114    -1.828043360145    -5.074034193141
H     -2.590842872360    -1.432482173364    -3.434393823907
O     -2.391577277922    -0.250807380962    -1.273704335843
H     -2.174649896616     0.029820568065    -0.313605342707

