# STO-3G

title

0 1
C      0.606124895008     2.603394883903    -0.536028651004
C      1.662590729932     3.529880061709    -0.402295075138
C      1.783593361167     4.598501152867    -1.315753860470
C      0.856141180976     4.742540381332    -2.365301109475
C     -0.188304758929     3.808428492629    -2.502635676401
C     -0.316040575530     2.736790252889    -1.593758600128
H     -1.131995754866    -0.686794121513     0.433515154099
H      2.391046782628     3.435573197528     0.401489848764
H      2.601815150186     5.307647643918    -1.207127748844
H      0.952014817779     5.563066196825    -3.072395420719
H     -0.899153311030     3.899067906333    -3.321113696604
H     -1.110650132458     2.008480248744    -1.736563149878
C     -1.615555499423     1.745674823924     1.444555810827
H     -2.076421761814     2.263764811663     0.610044292130
H     -2.032607204318     0.774754992495     1.690334778080
C     -0.714268861523     2.367621922608     2.306058335271
H     -0.365137396771     1.835322230890     3.180188449778
C     -0.377147275320     3.800397384345     2.260088617724
O      0.549191449356     4.225783774612     2.998711314098
O     -1.065556767646     4.651459807916     1.378964348649
C     -0.593055372770     6.003449106875     1.311513809261
H     -1.202505109293     6.567502306493     0.573137452835
H     -0.685650859191     6.506149392898     2.300599691677
H      0.467788456983     6.034447118716     0.975292013226
Pd     0.455083705860     1.113771592276     0.791368773719
C     -1.942515926356    -1.955841892016    -1.225748015775
O     -1.447099224837    -0.713244612334    -1.292060056777
O     -2.385490289227    -2.659197797397    -2.153050237906
C     -1.928815459033    -2.525976554431     0.261304512313
H     -1.446886675698    -3.509949283836     0.234615417970
C     -3.320672679463    -2.648814248737     0.837167116365
H     -3.268406016946    -3.034521274609     1.874889035175
H     -3.801497240965    -1.648922873781     0.849138491590
H     -3.927905703218    -3.341497243047     0.217901937761
N     -1.183668046792    -1.530704502780     1.039897278406
C     -0.319339795554    -1.546525782833     2.044949068633
O      0.411944919241    -0.523970467659     2.312924449347
C     -0.195830101698    -2.733776632427     2.906602490071
H     -0.395452574698    -2.413803091560     3.943293134250
H     -0.917121721869    -3.508305294270     2.605054170905
H      0.837671598640    -3.110705324693     2.815988902610
N      1.938492633815     0.109929606008    -0.245362442789
C      3.128585550714     0.052216775715     0.427400344112
C      4.252972083304    -0.445403805811    -0.195752501134
C      4.189945015454    -0.891865261367    -1.496381539176
C      2.984218370281    -0.845187911701    -2.142929582736
C      1.844102787676    -0.339594602498    -1.476131255539
H      3.187681368396     0.412383969993     1.447985232903
H      5.187330187944    -0.476694855556     0.339716354077
H      5.074036861341    -1.278919221578    -1.995813502975
H      2.867131907705    -1.185643604498    -3.152409049980
O      0.758793047186    -0.373483536667    -2.188689585085
H     -0.281153907470    -0.434492657493    -1.796722879917

