# STO-3G

title

0 1
C      0.991519306265     3.164406161297    -0.163327119654
C      2.080259439427     3.826303805389    -0.772711184747
C      2.453665201861     5.120085783656    -0.364510655578
C      1.739299557064     5.773335647117     0.658651461808
C      0.653229176571     5.120608183705     1.274135102763
C      0.282089794705     3.827386006183     0.863032222867
H     -0.245321993032    -1.761290681885     1.342685691991
H      2.644715856695     3.320263708629    -1.554487347507
H      3.301619104481     5.612068422304    -0.835699760623
H      2.028971361728     6.772104001364     0.976782614425
H      0.103025611366     5.614926607944     2.071803971593
H     -0.552195212745     3.325782786094     1.351905499776
C      0.559352773960     1.782380245671    -0.641372039185
H      1.390408844371     1.269103059597    -1.135310158065
H      0.281586145445     1.160008905036     0.215228907258
C     -0.654021527121     1.912519773754    -1.578321422926
H     -1.574858895947     2.087918405233    -1.029630588879
C     -0.553450396923     2.752472954294    -2.787048160015
O      0.094625149776     2.261146146778    -3.746379932774
O     -1.588627174710     3.667727852757    -3.031497275591
C     -1.482131061261     4.414155551037    -4.252097973384
H     -2.333317773071     5.125470778583    -4.323421993205
H     -0.536855778224     5.003116742397    -4.274618590183
H     -1.520948767670     3.739821419270    -5.137755646642
Pd    -0.886373804932     0.074361213653    -2.465686402307
C      0.918629907429    -1.573879530557    -1.495902652730
O      1.843196597641    -1.019629843887    -0.791936510301
O      0.786970665499    -1.444460136243    -2.783104773278
C     -0.102303229209    -2.459283355428    -0.670696196293
H      0.516607467105    -3.200055551653    -0.147632491925
C     -1.130075734088    -3.194667135262    -1.506843151186
H     -1.760548120965    -3.822305893614    -0.842946731635
H     -1.782601879638    -2.483604659038    -2.046874996429
H     -0.619401922328    -3.851133047116    -2.241658767129
N     -0.773293240097    -1.695183321384     0.395967670372
C     -1.713897720259    -0.765719130582     0.267166571097
O     -2.225189819394    -0.287005760380    -0.817644704218
C     -2.240831288434    -0.221787934966     1.533213366624
H     -1.403898718706     0.247177357791     2.079828467075
H     -3.028458790571     0.520167694147     1.317009389538
H     -2.650244247107    -1.062310502804     2.120171870390
N      0.677015632838    -1.599202010804     2.639224899742
C      0.269510776778    -2.116582184817     3.838437291684
C      0.819081835920    -1.650743352392     5.018059151718
C      1.787574577910    -0.670120336827     4.998216517852
C      2.191853567469    -0.178391592594     3.785475363797
C      1.612434480430    -0.690071362541     2.602407147229
H     -0.498898248890    -2.880337616614     3.859662786829
H      0.485121225831    -2.060400306219     5.956367416144
H      2.222605685227    -0.298407450064     5.921880918425
H      2.943887419088     0.579542403138     3.695095606532
O      2.086439303351    -0.148572272545     1.499454365976
H      1.911047184020    -0.594197163046     0.556097897976

