# STO-3G

title

0 1
C     -0.303594656233     0.702599949948    -0.837046235723
C     -0.719100499320     2.004986794164    -0.492309974247
C     -1.233160245423     2.871182766320    -1.478385358453
C     -1.334782098387     2.435088741081    -2.814134980973
C     -0.934709282117     1.127934418815    -3.158128791770
C     -0.423925189317     0.262926345816    -2.171507810696
H      0.103727341206     0.028736475315    -0.085536450987
H     -0.663953398149     2.342836573755     0.541098183763
H     -1.557339863028     3.873544980459    -1.207205446186
H     -1.733174831056     3.101466638813    -3.575888050250
H     -1.029104434040     0.779653513990    -4.184042200904
H     -0.136138963585    -0.754732132111    -2.427413389822
C      2.109756663145     1.347492174146     1.579946584430
H      1.709331080397     1.983134029743     0.797843528826
H      1.390306847820     0.909567024833     2.265177515379
C      3.488256803744     1.268215540164     1.854682033805
H      3.809456150352     0.715182156799     2.725021737270
C      4.525662288230     2.081741872171     1.197545369203
O      4.204008831197     2.909825266436     0.304181841266
O      5.861655020061     1.922958470540     1.601361164925
C      6.826868114708     2.723629800557     0.904503953414
H      7.841045504275     2.510601538959     1.306222074480
H      6.827513300747     2.484951545876    -0.183505016546
H      6.618084626277     3.808526146547     1.045624245016
Pd     2.847211201307    -0.464830186291     0.618314704918
C     -0.841587550816    -3.021649768710    -0.208714490244
O     -1.933123372402    -3.397626876962    -0.652291068873
O      0.249862949291    -2.910901189388    -1.024442476095
C     -0.612257557219    -2.693788441764     1.299375888227
H     -0.663294323653    -3.671335695633     1.814585852247
C     -1.723039144194    -1.818641939746     1.842148261011
H     -1.544704190271    -1.598586463375     2.913909954544
H     -1.756259270088    -0.862759249887     1.280393768126
H     -2.702566529295    -2.331426427991     1.737567471131
N      0.639094196514    -1.973043569040     1.464502373453
C      1.511482900965    -2.097931967874     2.406170796797
O      2.632634761144    -1.366974419014     2.411842307332
C      1.351675220261    -3.032986801821     3.539079905533
H      2.216926127252    -2.920351709300     4.217707445488
H      0.421077683405    -2.778531073465     4.071942699227
H      1.324808009967    -4.062895661414     3.143417076317
N      3.079965702102     0.065894269609    -1.353105231806
C      3.061667456597     1.101584163507    -2.242304909905
C      2.949484974893     0.830816811485    -3.595541514919
C      2.843706366707    -0.470570376424    -4.053931559711
C      2.845465551687    -1.495004423451    -3.139336074082
C      2.957432669219    -1.175149592629    -1.773666967560
H      3.134631244189     2.123904446975    -1.893934868435
H      2.930638591832     1.650400527221    -4.294251377856
H      2.744742450786    -0.676971602460    -5.116078053911
H      2.732193246982    -2.523116814167    -3.416718109005
O      2.872212088566    -2.104797901090    -0.851046103105
H      1.092765009715    -2.598135650988    -0.592185288190

