# STO-3G

title

0 1
C      0.147683691076     3.626940956620    -0.027338038638
C      1.323726123060     4.305279410123    -0.419146783292
C      1.391993892550     4.974055727628    -1.656078039869
C      0.277366623224     4.977948657907    -2.518232532209
C     -0.902657000551     4.313301392034    -2.130861514903
C     -0.966930834000     3.642540651757    -0.894201486357
H     -1.299293215886    -0.557956707352     2.052868094234
H      2.184335526079     4.322684987221     0.249404816873
H      2.301193654409     5.501045524183    -1.938268037571
H      0.322960358273     5.503294464759    -3.469625281554
H     -1.772834685472     4.323440110355    -2.783632597381
H     -1.885236606680     3.136037995571    -0.601651722325
C      0.098232241120     2.880643330996     1.294296773185
H      0.531222571757     3.506517428950     2.092786792807
H     -0.942456373182     2.703148861466     1.584684501139
C      0.880906137232     1.553838405754     1.243401595333
H      1.824617866865     1.659299619186     0.717756015506
C      1.111584762168     0.767061427222     2.475695965991
O      0.413018295681     0.984779044656     3.500252980784
O      2.150357215233    -0.173873418956     2.480400962743
C      2.192180702426    -1.055681023758     3.610111167939
H      3.040025987247    -1.764432186784     3.489842923739
H      2.342659184245    -0.486798824359     4.555405698525
H      1.254259080245    -1.653493190241     3.677233703603
Pd    -0.167264606346     0.314546890510    -0.046850923959
C     -1.170735090503    -2.582835630742     0.575645426541
O     -0.020993220221    -2.091431613490     1.017615038707
O     -1.424765705502    -3.741728290975     0.182195818122
C     -2.345627358855    -1.517937188748     0.574753225873
H     -3.183066738724    -1.945571182072     1.143342522361
C     -2.816807846361    -1.196585369905    -0.829162531730
H     -3.736587031069    -0.577734007628    -0.792523601737
H     -2.036882187473    -0.646176290659    -1.388271298393
H     -3.058740896852    -2.134822826617    -1.371727784311
N     -1.853239469044    -0.246600560860     1.248896750007
C     -2.780816776805     0.786266611276     1.549446052395
O     -3.394913286710     1.436237876434     0.694003122695
C     -2.996595661307     1.082405360686     2.982723626848
H     -2.041268311703     1.400439774027     3.429744059581
H     -3.745096645302     1.890033613580     3.070118958615
H     -3.362366214599     0.165225793558     3.475182857591
N      1.476798307072     0.219664855029    -1.233212670404
C      1.783311833498     1.187859533812    -2.151422659836
C      2.933749159886     1.083147859524    -2.902459443765
C      3.779926421087     0.008228899041    -2.744299656730
C      3.448396392797    -0.953688507148    -1.826950484714
C      2.265636276822    -0.823944893746    -1.066622559440
H      1.118622817245     2.030252993963    -2.291890657883
H      3.167554920934     1.852826861385    -3.619913197657
H      4.687599847401    -0.076919385294    -3.335982203479
H      4.064466772879    -1.815302564024    -1.660561607649
O      2.058713661721    -1.802575707617    -0.232962630833
H      1.141732468512    -1.948934828980     0.356991941475

