# STO-3G

title

0 1
C      0.012511510268     3.589452205113    -0.056664364391
C      1.203246836910     4.334708958284    -0.218264939005
C      1.466818015199     5.037393092653    -1.409293662126
C      0.530884293232     5.026136405430    -2.461196886863
C     -0.671969495023     4.310715589403    -2.305727815778
C     -0.925147197231     3.603670962826    -1.115022324997
H     -2.890403969604    -0.524841406272     0.066990241999
H      1.928861945699     4.377952767146     0.593361080205
H      2.391863955368     5.601751440086    -1.506489806689
H      0.728568417010     5.577310804571    -3.377566935784
H     -1.411300404324     4.309374084859    -3.103729829018
H     -1.860648953453     3.059345959891    -1.013496373973
C     -0.278168499603     2.832560300077     1.229779089167
H      0.082768157500     3.428912594039     2.083623235472
H     -1.360771195393     2.758328433401     1.365937888780
C      0.295155043137     1.406630869015     1.410974841530
H     -0.252992310439     0.904941944091     2.214845417064
C      1.740610175144     1.176134785484     1.637417400564
O      2.576765246487     2.101442013761     1.471648717653
O      2.125736158532    -0.075822566302     2.140921807687
C      3.536364536354    -0.283440451979     2.297265499746
H      3.716001868473    -1.315281559710     2.669641363276
H      4.064097219576    -0.173594645570     1.322437423785
H      3.963841945601     0.434865754989     3.032870236167
Pd    -0.398268773655     0.100456194052    -0.042358587458
C     -1.062068009062    -2.305415292796     0.502256427679
O      0.059547457514    -2.787923399394     0.944020231103
O     -1.402298603150    -2.141333269327    -0.733062698922
C     -2.018749427632    -1.700298776051     1.571062282417
H     -1.477001659800    -1.524757369092     2.500268617346
C     -3.253256923953    -2.538138740309     1.828284627041
H     -3.899379975448    -2.033145296540     2.575666375238
H     -3.822280416033    -2.668597637296     0.884203351505
H     -2.958064400232    -3.533742303766     2.219514102715
N     -2.435898715795    -0.387592680949     0.972765743046
C     -2.907814131494     0.634969614968     1.793504986542
O     -2.517825263487     0.831462053864     2.955001777432
C     -3.921900768208     1.522881409691     1.187752455315
H     -3.515836082411     1.944791384714     0.256457960277
H     -4.814271028916     0.910784931915     0.972773659456
H     -4.174495593267     2.325356823216     1.905345892667
N      1.391986140537     0.049727058901    -1.035083505471
C      1.732227854033     1.130921199984    -1.806052790124
C      2.928870169212     1.153077757204    -2.486585607330
C      3.800101696073     0.094644118804    -2.406126299041
C      3.438844941281    -0.986507649250    -1.650266471300
C      2.201467418621    -0.993494029719    -0.964522474628
H      1.052852839072     1.960260946596    -1.903966328515
H      3.180997822701     2.017917255698    -3.078218039262
H      4.747602673478     0.111839685898    -2.937957086855
H      4.069755955481    -1.848591971090    -1.563559216369
O      2.001008788571    -2.085595486291    -0.299274478170
H      1.089539838977    -2.425431758727     0.260612188905

