# STO-3G

title

0 1
C      1.846821590766     2.262782112420    -0.031444468684
C      3.138149087478     2.328606686404     0.553235051422
C      4.019230244454     3.393084718368     0.268316284140
C      3.622945926415     4.432179267681    -0.593616618993
C      2.341083733028     4.392449606705    -1.177301621619
C      1.471737748343     3.317544220071    -0.907432193231
H     -1.640993831944     1.512034354952     0.539852523336
H      3.461429969226     1.558774749264     1.249794964416
H      5.006208570850     3.411342914000     0.726411393860
H      4.298249898468     5.257704069811    -0.806768787749
H      2.021201269393     5.190558311419    -1.844614542243
H      0.492122448338     3.303550244286    -1.380554969620
C      0.974656745273     0.959996069424     2.237172708725
H     -0.215660815459    -0.451508762032     3.020507537610
H      1.727045023269     0.209181920903     2.518696429098
C      0.519594158770     1.778414177834     3.222177233759
H      0.848182938979     1.639817208577     4.246671722000
C     -0.358321036926     2.936815215938     3.005665075223
O     -0.756840259652     3.594177545366     4.003552902340
O     -0.582010973245     3.394402998904     1.694053602170
C     -1.469830279868     4.512459233236     1.564435829453
H     -1.575310773555     4.775357384347     0.490490872183
H     -2.479793966373     4.259566320346     1.960335900681
H     -1.069358713637     5.400882741714     2.103465857797
Pd     0.477885839747     0.787635156046     0.308125678683
C     -0.535102059987    -2.415527555115     2.629716096356
O     -0.383749519686    -1.336005913684     3.453761910583
O     -0.601636399482    -3.567551174268     3.070488138071
C     -0.677917491510    -2.124030525883     1.096364940370
H     -1.415662593098    -2.856884892662     0.738845764302
C      0.615965294803    -2.376667617448     0.360484478422
H      0.465549341394    -2.209745082449    -0.725792943607
H      1.405814657166    -1.698432642512     0.735362542272
H      0.941275214948    -3.427220852816     0.515283159372
N     -1.065934711105    -0.733191447257     0.821360404542
C     -2.261178402561    -0.262601551509     0.934265599627
O     -2.511224512517     1.040790887635     0.711419909718
C     -3.433052188928    -1.073402864495     1.304553927546
H     -3.579112707813    -1.856256712167     0.542786031292
H     -3.254091512062    -1.503823750901     2.305390589701
H     -4.325094802565    -0.420833294205     1.343622359880
N      0.131252361389     0.388236315107    -1.815925371742
C     -1.108645637376     0.318713446067    -2.394432209393
C     -1.241643614310    -0.151853291338    -3.686819400662
C     -0.134794635437    -0.550454337622    -4.405876763759
C      1.094275625224    -0.462294996111    -3.805716279147
C      1.179079567526     0.028913150299    -2.489108803622
H     -1.984839619845     0.633757195220    -1.842707249801
H     -2.221569872684    -0.203311304404    -4.133191065063
H     -0.234122690730    -0.921378156487    -5.422737292795
H      1.997332816046    -0.749378056858    -4.307222267055
O      2.414405336841     0.074979377350    -1.994730014095
H      2.432959711068     0.583537416084    -1.133906091727

