# STO-3G

title

0 1
C      0.068251998463     2.911278525793    -1.186515934527
C      0.945011322096     3.960705728215    -0.844848092915
C      0.464576835973     5.286511167091    -0.802322213305
C     -0.880683941207     5.564154866690    -1.113596575808
C     -1.749719267469     4.510415164594    -1.458753587308
C     -1.280907828487     3.180149034182    -1.492445310301
H     -2.274412128429     0.469631845449     1.629702484027
H      1.982301343916     3.748969453670    -0.593416044057
H      1.140998663801     6.093471703314    -0.528044980470
H     -1.247174425281     6.587790108918    -1.087907987933
H     -2.789786186101     4.718294971224    -1.702319557593
H     -1.959905574436     2.371271881228    -1.750269182498
C      1.077701030774    -1.637019001491     2.566009464506
H      0.466241767867    -1.387548905902     3.427135450903
H      1.211015173854    -2.698063586489     2.370854489146
C      1.615803902383    -0.718857253622     1.733481842052
H      2.173559353197    -1.033414882575     0.859405397514
C      1.429433306635     0.732848596374     1.850866031397
O      1.818688808733     1.455781839664     0.893526114364
O      0.698870894938     1.273210123246     2.924940081561
C      0.283936422138     2.637952951800     2.769340963414
H     -0.281921607924     2.956499081368     3.670395371725
H      1.162431464857     3.311989269302     2.652699440655
H     -0.386665125696     2.746365125294     1.885170836846
Pd     0.705740556615     1.040894843524    -1.197982462103
C     -1.081292187045    -0.982745024178    -0.014785314189
O     -0.322308620114    -1.883870733957    -0.610417786438
O     -0.980132504245     0.282258281626    -0.158433115264
C     -2.127947161965    -1.512042005047     0.964325280492
H     -1.750439508141    -2.421885128278     1.438852972238
C     -3.454054890687    -1.806245712108     0.297185782738
H     -4.157781398731    -2.216825984423     1.050775178160
H     -3.879362939785    -0.864807169869    -0.107300063115
H     -3.320661731279    -2.545790738980    -0.518924775079
N     -2.332865823841    -0.482164758971     1.978416145877
C     -2.230605547497    -0.779700296169     3.303085721137
O     -2.042074424986    -1.932913347979     3.756770701131
C     -2.349540835439     0.351773181143     4.247739086069
H     -3.161033953530     0.110156677483     4.953571316050
H     -1.385877730683     0.436047773682     4.776633110419
H     -2.575187484177     1.288280831865     3.709353395450
N      2.407628104040     1.045890035066    -2.340256353855
C      3.234326161479     1.875517862048    -3.038901758164
C      4.319401200749     1.343108128327    -3.709854427177
C      4.575003428932    -0.015070469397    -3.675684632494
C      3.727793009900    -0.827900788118    -2.963463708326
C      2.630847020438    -0.250110920082    -2.291055930068
H      3.036710210994     2.940858786089    -3.068038645505
H      4.972041232814     1.998948666151    -4.262223774453
H      5.429991598095    -0.431241950875    -4.201861225259
H      3.869684287578    -1.886930039409    -2.892901606123
O      1.829237823266    -1.023653121779    -1.610513514066
H      0.535774996595    -1.563776838636    -1.101285567480

