# STO-3G

title

0 1
C     -0.249495676761     2.967650605780    -1.822295500723
C      0.459217899868     4.164115959723    -1.597613719021
C     -0.131343419191     5.396742719759    -1.947757151902
C     -1.413781161755     5.428713432069    -2.528906284884
C     -2.112907855394     4.225436251609    -2.748538612401
C     -1.536861863319     2.988157207865    -2.391558250120
H     -0.783690060127    -1.484262169869     2.714166935188
H      1.444029277856     4.141101617300    -1.136018182263
H      0.410749407674     6.322329729634    -1.765206772130
H     -1.864751587350     6.379205176178    -2.804448808746
H     -3.106232694770     4.244030585424    -3.192237485086
H     -2.089794660900     2.065176621005    -2.544451764489
C      1.004095379046    -0.323980131630     3.454659608114
H      0.330714461595     0.100201521453     4.196269973684
H      1.412008216519    -1.309592351006     3.668188573310
C      1.361431297906     0.326892626696     2.324148449229
H      2.027165641334    -0.137758904734     1.606677365218
C      0.861462488108     1.649599086073     1.925512725662
O      1.208824996025     2.102236451142     0.801200080859
O     -0.127514513177     2.292713072313     2.692156771965
C     -0.721150191204     3.456719778202     2.097808298788
H     -1.481520173692     3.877263400395     2.790371151151
H      0.045635524668     4.240858951883     1.905079424486
H     -1.231464984059     3.197176399058     1.141325407779
Pd     0.535666617395     1.244067329108    -1.270572969373
C     -1.153620495273    -0.572631860669     0.252939711937
O     -0.105435500992    -1.380328940504     0.153345910439
O     -1.259609280620     0.550739668260    -0.341242652936
C     -2.226941991843    -1.089860499429     1.222539108728
H     -2.919885773045    -1.742459904826     0.672411506237
C     -3.008979992473     0.023153112374     1.884649749906
H     -3.777983213725    -0.417256451180     2.552469094647
H     -2.322478038722     0.642953003066     2.497071191205
H     -3.509135668613     0.655112177795     1.122345731494
N     -1.596561126551    -1.892710115473     2.259150980840
C     -1.833373825015    -3.232445815660     2.325897846091
O     -2.671870766888    -3.842016208619     1.625921951102
C     -1.023097479745    -3.967474942402     3.317964667936
H     -1.316476868935    -5.031490938806     3.291730161325
H      0.035664926356    -3.849417317195     3.035052434786
H     -1.220700343633    -3.531595841905     4.312041524933
N      2.432133759016     1.275130680901    -2.036550705631
C      3.239174325391     2.053051185129    -2.813696831494
C      4.517943491208     1.620775805149    -3.108950332034
C      4.984750588518     0.413808297219    -2.624328431766
C      4.151726802166    -0.349719112352    -1.844846067136
C      2.851683332017     0.121177137359    -1.562564408776
H      2.876231719244     2.999863360212    -3.196545431471
H      5.154668808772     2.235478402308    -3.723620008393
H      5.990749094241     0.074942449732    -2.857000333128
H      4.449389466342    -1.295212711996    -1.439513888378
O      2.073045662879    -0.620457657269    -0.825440970787
H      0.767571083561    -1.078697973765    -0.328829055416

