# STO-3G

title

0 1
C      2.437809387595     2.128338962128    -1.272342062280
C      3.721180683388     1.549392350548    -1.238682023439
C      4.832891689773     2.303750095027    -1.670073076847
C      4.664152114279     3.625535628772    -2.126849293041
C      3.377264064816     4.197570708627    -2.150073482923
C      2.257781709892     3.449132744266    -1.729021807057
H     -0.133363162619    -2.271447007945     3.636403657591
H      3.862209438191     0.534333178481    -0.875947711272
H      5.825096202231     1.857858438139    -1.642447810983
H      5.525046193174     4.204184480569    -2.453426153801
H      3.239762884785     5.222944445855    -2.486904362582
H      1.267192366900     3.898868874411    -1.737110929946
C     -2.657229026053     0.888233976844     2.077935217416
H     -3.527359474145     0.670574555569     1.463894202799
H     -2.577288694461     0.360609894747     3.021793924344
C     -1.680624390208     1.736489849824     1.691366851198
H     -0.802172312153     1.873436591428     2.308690660241
C     -1.690201473779     2.478521480070     0.424339700414
O     -0.590913771344     2.895682437753    -0.033932991271
O     -2.880990425477     2.596287787842    -0.316868526769
C     -2.794709074996     3.349207288693    -1.534454016036
H     -3.794030765081     3.376635294454    -2.019441101177
H     -2.477152737993     4.396508581501    -1.330049359669
H     -2.081604549169     2.876625479500    -2.244972983656
Pd     0.879296926827     1.079430973675    -0.678868388887
C      0.977941690190    -0.372027609035     1.846285129181
O     -0.002302152714    -1.087806725562     1.308866580404
O      1.590202853550     0.588682731998     1.283034652340
C      1.337841836834    -0.786066087554     3.280883176620
H      1.638181655684     0.123914510228     3.808412959515
C      2.476333225093    -1.782400052687     3.321760087194
H      2.724432179473    -2.011765126134     4.378853127235
H      2.165822144729    -2.721135424107     2.818823816223
H      3.373433444538    -1.364467856499     2.820082176833
N      0.191348746050    -1.368402331326     3.961226602967
C     -0.656777843838    -0.565650508993     4.667974525644
O     -0.516296400360     0.670143563105     4.803762829121
C     -1.792462349271    -1.257771613322     5.311703781546
H     -2.400492731104    -0.512101598153     5.853254452304
H     -2.383726671173    -1.750738869729     4.522598163807
H     -1.380414584710    -2.004885518383     6.011852334188
N     -0.130660223829     0.867748165444    -2.433727901613
C     -0.059477571827     1.301566781344    -3.724676041405
C     -1.005921115480     0.872150685625    -4.634970820016
C     -2.010479696534     0.002905993377    -4.253166324435
C     -2.051647369914    -0.425289469405    -2.949538678246
C     -1.071854073001     0.032169618128    -2.043196636134
H      0.726980690254     1.983764293384    -4.026555859010
H     -0.952287558777     1.216974010199    -5.654618764990
H     -2.753521770258    -0.334881723166    -4.970694448953
H     -2.805705073336    -1.093544993689    -2.585983001311
O     -1.130556266854    -0.371431537190    -0.807736516090
H     -0.459189429687    -0.795860115376     0.408485893581

