# STO-3G

title

0 1
C     -0.233848451245     2.927923443167    -1.831259286984
C      0.464196308587     4.133814647434    -1.613057399778
C      0.111651728640     5.288969203542    -2.342615586831
C     -0.924171772230     5.237935939761    -3.295903814169
C     -1.612741474257     4.028064438758    -3.514287798041
C     -1.271036474413     2.869767023002    -2.784991554309
H     -0.440599518129    -1.183727063130     2.537850592937
H      1.264080568284     4.176196761268    -0.876318878893
H      0.645492914505     6.220438243681    -2.163785658209
H     -1.191814577003     6.128315528410    -3.860603158632
H     -2.414515252285     3.981247529204    -4.248847651281
H     -1.809070951290     1.940396465015    -2.956897081858
C      0.889525633237    -0.040208372604     3.817849205617
H      0.273737521263     0.360378572690     4.619288086526
H      1.341543807820    -1.015154380445     3.995724663617
C      1.129475604281     0.619751081940     2.659066554368
H      1.713380202986     0.160600919226     1.871563843491
C      0.573866509777     1.934819053425     2.312899991798
O      0.859300148943     2.436016612223     1.190546914575
O     -0.299046285988     2.590334470564     3.202283314649
C     -0.918255056613     3.782820160891     2.699392746497
H     -1.589999883026     4.205634794007     3.476645188673
H     -0.152648833362     4.550352908773     2.445052442349
H     -1.530196464950     3.558057526601     1.795122332338
Pd     0.208058921656     1.311401112399    -0.794004083411
C     -2.029158164464    -0.165475527360     0.263736947354
O     -1.930462305587    -0.894155478008    -0.861319412900
O     -1.725430301759     1.056327904115     0.282019890641
C     -2.344471675418    -0.991410972514     1.539489778448
H     -3.095490998836    -1.752137113034     1.296133005118
C     -2.825440268397    -0.160545065194     2.705134638929
H     -3.005414341626    -0.819836975270     3.579097395720
H     -2.054024167816     0.587196089404     2.978589603530
H     -3.765853727800     0.363923412371     2.439504627368
N     -1.094867571895    -1.671412879060     1.920741180520
C     -0.670516037585    -2.721703655650     1.185704074084
O     -1.273570985326    -3.135927258598     0.150574905704
C      0.553240722019    -3.397294221968     1.639442217263
H      0.770714583396    -4.236664167536     0.956901509314
H      1.369267463866    -2.654698051757     1.603536515643
H      0.389542016010    -3.754747390379     2.669846746950
N      2.046026023146     0.954847783976    -1.552438080760
C      2.888765176704     1.494440209191    -2.477357552009
C      4.075770375928     0.849080320025    -2.768364099016
C      4.413194395669    -0.331093771698    -2.132862585920
C      3.546877495346    -0.854788063930    -1.205393859094
C      2.339393443502    -0.174134217499    -0.927954792867
H      2.627207487994     2.419687777614    -2.977650354048
H      4.741812719983     1.275618659012    -3.499614193219
H      5.346951347330    -0.836242812704    -2.364204344336
H      3.744518962824    -1.765660230647    -0.680380543768
O      1.515142295085    -0.667847734558    -0.054595471230
H     -1.814044518932    -1.898147122803    -0.662481125932

