# STO-3G

title

0 1
C      1.022578178304     1.480978144063    -2.671470858931
C      1.562650151794     0.428853067949    -3.440182862138
C      2.056953405311     0.688376377318    -4.733793443937
C      2.014003130825     1.995333008451    -5.258901094937
C      1.480874566465     3.046579850068    -4.486576004116
C      0.986448922289     2.791533896732    -3.192197927547
H      0.646704670801     1.282372236302    -1.668431079063
H      1.604683819287    -0.576942411409    -3.030532156210
H      2.475375630263    -0.122684694128    -5.325286118738
H      2.396251200746     2.193942331542    -6.257790297537
H      1.454942484471     4.057772034635    -4.886575658040
H      0.592778814959     3.602795431246    -2.584914468506
C     -2.231818799977     1.905849375565    -1.103262004313
H     -2.885570456115     1.896584111036    -1.975052484160
H     -1.240585367832     2.311135815304    -1.266157220282
C     -2.692091271029     1.654480911467     0.189073356126
H     -2.017278053004     1.823033027900     1.016411013595
C     -4.083693817444     1.309688769047     0.522950597003
O     -4.840560944550     0.888767208233    -0.392101836056
O     -4.473941186006     1.276133276245     1.870527747916
C     -5.810671321977     0.823353260579     2.128037853003
H     -6.001301840514     0.845676604411     3.222997051421
H     -6.556738140062     1.484341298349     1.631500661077
H     -5.949104251578    -0.224078719365     1.775369867393
Pd    -1.840889572293    -0.281823415860    -0.799767934748
C      0.373791623883    -1.135516214721     1.082759177833
O     -0.539887256005    -0.195625251054     0.708208107550
O      0.585577755961    -1.258099182082     2.310692680884
C      1.320516339359    -1.888414826993     0.089381626489
H      1.562986913013    -2.814425255136     0.635514716539
C      2.619386887033    -1.119998511606    -0.053608639216
H      3.348169022112    -1.716585605621    -0.641750315160
H      2.429117416055    -0.166924782247    -0.583854393550
H      3.058657888698    -0.906574574708     0.943251723906
N      0.957164476486    -2.298485711086    -1.257738636043
C     -0.209859221036    -2.432073009337    -1.765031334930
O     -1.428842536611    -2.153722622309    -1.216178105697
C     -0.279181866656    -2.969022967294    -3.132161440825
H     -0.752732792139    -2.210753721697    -3.776394669285
H      0.742831517619    -3.194087634947    -3.489485423020
H     -0.882377871704    -3.892843982014    -3.104668141125
N      0.043300530541     2.734267508255     1.580305270699
C      0.757546280558     1.919582475934     2.418879337467
C      2.116608699922     1.743526482571     2.211198742669
C      2.753104302757     2.369321252299     1.158427147870
C      2.005665022216     3.169954012587     0.331903201745
C      0.632424804187     3.319238747576     0.608267406506
H      0.258223666064     1.416199816808     3.238757487637
H      2.664693257979     1.090410743760     2.870636883362
H      3.815643409105     2.223518959877     0.983935828513
H      2.428114275568     3.681666754638    -0.509266174465
O     -0.035540775717     4.118810949999    -0.272232160547
H     -0.968374045198     4.207843781416     0.013898207442

