# STO-3G

title

0 1
C      1.053896226952     1.870826286965    -2.344212846384
C      2.025367782811     0.978467509430    -2.841223535133
C      2.573380794756     1.175944568123    -4.123848819509
C      2.151061538742     2.266004918266    -4.911697679226
C      1.185419208422     3.162961052599    -4.412999735748
C      0.639735643696     2.966733755453    -3.128865443816
H      0.649998001294     1.713962701912    -1.347894019665
H      2.349373730088     0.139081608698    -2.231130153348
H      3.324190565427     0.487385388349    -4.504171127928
H      2.573855780299     2.418723853884    -5.902158159970
H      0.865067798690     4.010003193724    -5.015438702461
H     -0.089179556039     3.674192031759    -2.736389052391
C     -2.318672431318     2.055278775843    -0.704405084259
H     -3.105101076095     2.180983124958    -1.448548717683
H     -1.412801533669     2.624158804590    -0.872159255756
C     -2.530939111048     1.416680565530     0.518022634359
H     -1.745580215934     1.471190427067     1.255908345569
C     -3.806396190743     0.814511349127     0.936985767051
O     -4.662991327671     0.538289898081     0.056128095450
O     -3.924604975923     0.326875747230     2.247676006875
C     -5.160020557628    -0.329616084426     2.566289888505
H     -5.138435050648    -0.658405164559     3.628110008688
H     -6.022737160317     0.362375487799     2.435221173971
H     -5.307305894076    -1.230876950876     1.928665873287
Pd    -1.667610376006    -0.037689508104    -1.092022224830
C      0.638649443295    -1.063381287014     0.586499201686
O     -0.100386856656     0.009661511594     0.172367798748
O      1.535020759202    -0.848562679623     1.430400506389
C      0.319315686042    -2.447675801680    -0.038826761875
H     -0.774737293051    -2.588568765059     0.019537858638
C      1.004424107006    -3.571703270353     0.700680383103
H      0.722828993689    -4.542580393621     0.243561398871
H      2.104612088774    -3.446422778482     0.616721872168
H      0.711223199359    -3.569256322632     1.770691849597
N      0.813857069640    -2.506038681492    -1.424624800473
C      0.043756331123    -2.090634413519    -2.374401805560
O     -1.184896949186    -1.540725733490    -2.248693201113
C      0.531999199798    -2.220208456788    -3.752086661379
H      0.564998972664    -1.211826522551    -4.197398745016
H      1.543401518910    -2.665916165362    -3.735464960362
H     -0.166807351063    -2.870856599053    -4.304079695363
N      0.207517619065     2.991097592238     1.411103916809
C      1.300534248094     2.249245367906     1.774862792732
C      2.540515546843     2.541966951119     1.231677787489
C      2.684777010398     3.571677914166     0.323955828281
C      1.572609123421     4.304621671956    -0.007844239963
C      0.341267063195     3.952315863032     0.577152306831
H      1.191606807514     1.447787142241     2.494774982564
H      3.386783471842     1.933305135660     1.505341035698
H      3.651832650712     3.791646940034    -0.119795864590
H      1.605443333309     5.110175959859    -0.712262485582
O     -0.716616077021     4.697288139419     0.148296408134
H     -1.525773657724     4.408762769999     0.619532868695

