# STO-3G

title

0 1
C      0.733477268251    -2.846537819699     1.491698330475
C      0.702159555142    -3.186387821775     0.108791550031
C     -0.148796972720    -4.228620656255    -0.344825688599
C     -0.934714013801    -4.937503283653     0.571197763602
C     -0.894546431060    -4.612980520745     1.953564725988
C     -0.072082296971    -3.578034786626     2.408880849920
H      1.463113357370    -2.137556975821     1.868052239591
H      1.407192133436    -2.713802102628    -0.566065191369
H     -0.162237241199    -4.490539255982    -1.399215345109
H     -1.581336507802    -5.742858087553     0.231688346243
H     -1.502361438216    -5.179420272279     2.654859299501
H     -0.007724079378    -3.350829096762     3.470058635589
C     -2.092159368603    -0.843927822536     1.685846999639
H     -2.104180610657    -1.699068851855     2.358912162727
H     -1.905526760885     0.133032415057     2.126412434488
C     -2.481064302772    -0.979891413781     0.355167949831
H     -2.551411102477    -0.092874118271    -0.253645327372
C     -3.033170276754    -2.208414300261    -0.240542035833
O     -3.414942878564    -3.152237119435     0.500637260495
O     -3.157772105391    -2.277429126783    -1.638291653946
C     -3.723564351116    -3.489703480012    -2.156499760211
H     -3.772714396506    -3.429624127530    -3.265230329920
H     -3.097221637219    -4.368544179106    -1.881810068030
H     -4.758227787657    -3.639279568836    -1.771719815495
Pd    -0.154103852736    -0.787563428655     0.480671589094
C     -0.230396806667     2.125488039783    -0.552986483751
O     -0.726912299986     1.124401069452     0.214939973054
O     -0.748131031805     3.260755059240    -0.448792710053
C      0.950752970575     1.871960128597    -1.527748729446
H      1.075280277559     2.827383044813    -2.046257105449
C      0.641353626460     0.804486897120    -2.567883089616
H      1.493764544637     0.725506721358    -3.274318127496
H      0.488413975324    -0.178120201681    -2.084107338366
H     -0.271561276316     1.079869221037    -3.135756223942
N      2.232261337579     1.580798893626    -0.874131977206
C      2.516826700331     0.536819478601    -0.181978524655
O      1.797168542859    -0.577738346731     0.095926550274
C      3.901729746643     0.483397003627     0.311538674231
H      4.568684062594     0.508797949938    -0.566970802650
H      4.068332973745     1.376643391791     0.934390541702
H      4.061043401729    -0.439511694996     0.896807793698
N     -0.376294517160     1.438662643506     3.204177580751
C     -0.270709323488     2.737002604425     2.779792753104
C      0.981520843532     3.307034462445     2.624336881768
C      2.122881247590     2.573709852560     2.875539057033
C      1.981669060214     1.269008447227     3.281484746274
C      0.679180862531     0.754076354811     3.427432629104
H     -1.164844370649     3.312076538308     2.568642606501
H      1.055222630081     4.322403693071     2.270133681192
H      3.106379191827     3.015973666856     2.743475967678
H      2.818378839087     0.634009727449     3.488483135015
O      0.626709211871    -0.561248860682     3.792300963159
H     -0.313928601795    -0.832426775964     3.838173288559

