# STO-3G

title

0 1
C      0.844058075115    -2.553397308200     1.469414650812
C      0.815327750831    -2.878437904731     0.085131655884
C      0.005013282943    -3.944141000281    -0.376676792032
C     -0.756857913652    -4.690000725003     0.533474702410
C     -0.722148992968    -4.381154178211     1.916962252697
C      0.074599777787    -3.328698219824     2.382375671331
H      1.570242179828    -1.835229183963     1.838046872936
H      1.483857119866    -2.357292334579    -0.589826498362
H     -0.001880401053    -4.195105727240    -1.433769685754
H     -1.376177931643    -5.513241736344     0.186187539898
H     -1.305909018388    -4.974349081771     2.616324348139
H      0.147980580300    -3.139012573177     3.451669622828
C     -2.077877031478    -0.422361175056     1.659997063156
H     -2.162168781697    -1.234661639420     2.379196955209
H     -2.004784628329     0.584494511916     2.054911576115
C     -2.346249989789    -0.636874601295     0.305712399177
H     -2.425887781449     0.219295270889    -0.343851507853
C     -2.820695836257    -1.906670502287    -0.268505398071
O     -3.208235816660    -2.834270181892     0.488988745794
O     -2.872309150589    -2.028524618188    -1.666955805183
C     -3.399365961709    -3.264893784680    -2.168684829266
H     -3.391484888305    -3.245692047845    -3.280023157759
H     -2.781231809830    -4.126924125542    -1.830673813283
H     -4.451191497341    -3.411787947379    -1.832490532251
Pd    -0.078872661685    -0.390662880458     0.612059988178
C     -0.414252976255     2.123714451493    -1.037862163361
O     -0.547721749208     1.516911103304     0.172776310309
O     -0.920174096351     3.253636925720    -1.200265784492
C      0.401828335710     1.437204785075    -2.173672447706
H      0.343096118013     2.150912334117    -3.002071845411
C     -0.210659059928     0.125809136424    -2.642726721416
H      0.322837603411    -0.218145939754    -3.553288839189
H     -0.106776346215    -0.652488909319    -1.866212388530
H     -1.283695639263     0.266672342807    -2.889628718774
N      1.824628650504     1.231706634926    -1.892305026915
C      2.364935043301     0.559171262301    -0.942416691756
O      1.845543855111    -0.162990507363     0.077612683525
C      3.836417935097     0.556796173059    -0.959608741554
H      4.160515960606     0.125359045964    -1.921782339440
H      4.169978749246     1.605693789343    -0.884890822150
H      4.227573541522    -0.036133866016    -0.113388935196
N      0.745391109697     0.802929720680     2.813478197706
C      1.433609847200     1.953735573184     2.530673876710
C      1.869722431020     2.761354438206     3.567696316293
C      1.608134220266     2.419986144489     4.880409671159
C      0.910959268992     1.262821413063     5.124954763832
C      0.497555726806     0.484882693141     4.026807403851
H      1.641709436589     2.227004914980     1.503217959316
H      2.407793967561     3.666944844124     3.340243504424
H      1.943029710975     3.053086921257     5.697701785908
H      0.665618860617     0.935424120429     6.114966082876
O     -0.199410669537    -0.633752269404     4.350241751614
H     -0.475078788631    -1.088030373882     3.525585765212

