# STO-3G

title

0 1
C     -0.632541575941     1.526670038172    -2.777896062709
C      0.758252057404     1.736327676067    -2.890719141633
C      1.260242188941     3.005671121339    -3.235178512944
C      0.373290501272     4.077619945261    -3.464790255919
C     -1.016511461742     3.874094849409    -3.356958954872
C     -1.516522237736     2.599849077372    -3.020084269617
H     -1.010897595394     0.533984167524    -2.549667390191
H      1.443575630265     0.909747885065    -2.717585188182
H      2.333917744467     3.157939477062    -3.320198796333
H      0.761632143556     5.058890769559    -3.729329602143
H     -1.702781975545     4.698215668169    -3.540291016918
H     -2.592098011397     2.443832834257    -2.966392940126
C     -2.504819667971    -0.684691987931     0.909815930768
H     -2.900856537500    -0.435613683017     1.891680535796
H     -1.900422132424    -1.582514614643     0.838663818569
C     -2.940951525555    -0.057683215130    -0.260869673954
H     -2.658773592573    -0.462481281900    -1.226927530677
C     -3.948072220999     1.017218428348    -0.284328153719
O     -4.132094258859     1.695988574474     0.760440133376
O     -4.490648187510     1.413009851221    -1.517313309217
C     -5.379933156965     2.538296209469    -1.480256875628
H     -5.751449723435     2.748084770426    -2.506671380045
H     -6.259035488404     2.328130318858    -0.829458130797
H     -4.853674421996     3.447655202145    -1.110017704405
Pd    -1.030693664372     0.967425444817     0.497236075123
C      1.513056256608    -0.613571105476    -0.069938328854
O      0.156677432129    -0.475553163388    -0.241053023029
O      2.103727176955    -1.422086094819    -0.809723750979
C      2.277165000532     0.189151279933     1.015071500573
H      3.269972351754    -0.272423997777     1.008676997929
C      1.687158448787     0.025129113227     2.407723352135
H      2.354826297167     0.518479102958     3.144770353673
H      0.689695916556     0.498138899668     2.466701944827
H      1.604347070831    -1.051527088166     2.664163765415
N      2.487513857086     1.613551392461     0.724708923817
C      1.577825885986     2.515055454349     0.634722570386
O      0.235623806575     2.411623305543     0.774188129924
C      2.029465878863     3.887398813086     0.370378294693
H      1.723583954062     4.514596722256     1.223134083688
H      3.129106219235     3.894765953597     0.259129806844
H      1.547691826248     4.230631552557    -0.561092831361
N     -2.042976483779    -1.567715127124    -2.893323939334
C     -2.726589867290    -1.629922435543    -4.077677805025
C     -3.044943948875    -2.858822699487    -4.628102525870
C     -2.670472063993    -4.027086188863    -3.995396475851
C     -1.976774745402    -3.934227269067    -2.816384434369
C     -1.668277256228    -2.654352526483    -2.308952964377
H     -3.028349362339    -0.714396699199    -4.573158765170
H     -3.586177438122    -2.898449492741    -5.558695419734
H     -2.915021574671    -4.995613763104    -4.423104068572
H     -1.640110690434    -4.795634262807    -2.276002613114
O     -0.978000025824    -2.667691846986    -1.158793882609
H     -0.533844754320    -1.795812368185    -0.922059010083

