# STO-3G

title

0 1
C     -0.224078836679    -1.577292484095     1.636614410250
C      0.467924598520    -2.816535279335     1.737272938339
C      1.699310639534    -2.895863649143     2.402466986698
C      2.259511523107    -1.734050972788     2.984601910295
C      1.577708270054    -0.505333196743     2.916301596120
C      0.333433579605    -0.428248081839     2.258250110358
H     -1.262486550120    -1.599070012594     1.269347122842
H      0.027141074708    -3.713576848741     1.309422212020
H      2.220480645724    -3.846614297798     2.483089200062
H      3.217017649670    -1.795232066631     3.497193429144
H      2.002151759641     0.381311097423     3.379895257700
H     -0.219603966811     0.504823850303     2.224329277848
C     -0.019033123031    -2.492389478427    -1.643322409525
H     -0.503460215944    -2.312433718208    -2.599312585192
H     -0.564666983280    -3.109900264867    -0.938921455808
C      1.287094499048    -2.058387589625    -1.403543416587
H      1.785044523654    -2.309902089188    -0.479766975224
C      2.150801953781    -1.468473862604    -2.441611928734
O      1.974277005721    -1.770135867122    -3.650521519309
O      3.236432613790    -0.675707752925    -2.032586453271
C      3.981377457985    -0.056984341276    -3.092040593429
H      4.799364201840     0.559067467728    -2.661133549379
H      4.438021080756    -0.824999504528    -3.757234729225
H      3.325915183031     0.609537001618    -3.700524033038
Pd    -0.218434402084    -0.548781863016    -0.577047508153
C      0.357446577144     1.531946628539    -2.608382112231
O     -0.175943883688     0.299691868384    -2.370330323376
O      0.678355306405     1.836085779411    -3.773371990915
C      0.558689845382     2.553615457714    -1.444083891805
H      0.901275463987     3.455292515542    -1.962182894568
C      1.656046360854     2.134722561018    -0.477789533291
H      1.854121941135     2.965978587237     0.230724605181
H      1.347516622092     1.247656228954     0.102368203636
H      2.590621372523     1.908477813124    -1.032292040488
N     -0.631358728575     2.934419008249    -0.683288021575
C     -1.443684669848     2.194250890427    -0.032354996828
O     -1.437737536791     0.847271547537     0.208214465634
C     -2.559653531639     2.903449833622     0.609012506682
H     -2.132166908587     3.663669129467     1.285082588971
H     -3.140173635641     3.395646457183    -0.190539384559
H     -3.197131363047     2.196745213515     1.169696506028
N     -2.979796966645    -2.417474871168     0.324253411627
C     -3.306619708566    -3.723865249482     0.576182450899
C     -4.503848469219    -4.241829524155     0.120706119757
C     -5.386959757949    -3.449199383630    -0.581317415217
C     -5.046491112658    -2.141308751656    -0.804654659114
C     -3.812705323940    -1.659710822282    -0.315662457237
H     -2.615615959452    -4.354545135868     1.123042781305
H     -4.746579332987    -5.273153442389     0.318080324529
H     -6.330185807696    -3.849673583099    -0.943540693682
H     -5.686929033161    -1.465920276227    -1.336571031547
O     -3.608849371165    -0.370779927004    -0.581132495902
H     -2.762503883584     0.054347959946    -0.223195259819

