# STO-3G

title

0 1
C     -0.128188760931     3.306491503768     0.165995257179
C     -0.348957527030     4.599918568921     0.702100824848
C     -1.217238793832     5.517646686391     0.080816778753
C     -1.895385545127     5.164139341426    -1.100858910373
C     -1.678456728586     3.887891741882    -1.659792419311
C     -0.804971838996     2.976196200226    -1.039547057038
H     -2.748939888920     1.255286304629    -0.283585409289
H      0.171864329551     4.889943823735     1.613063154710
H     -1.359902173785     6.504396593716     0.516324120592
H     -2.561991884031     5.872571015644    -1.586848836722
H     -2.166993490183     3.616312662801    -2.593771579262
H     -0.601162702310     2.023088429392    -1.519452218950
C      0.829155430523     2.374365932357     0.853669305692
H      3.165300758694     2.364741872721    -0.260468710397
H      1.408622472885     2.908387277662     1.612058132279
C      0.255046761615     1.066799749216     1.441015084943
H     -0.717779356076     1.123812106880     1.913761965029
C      1.206091243252     0.280765294011     2.273541733019
O      2.446558485657     0.386739111508     2.022720328836
O      0.725172103408    -0.604903780879     3.252255320379
C      1.715594311434    -1.369927093226     3.951298103418
H      1.211866736535    -2.027069093211     4.692989038473
H      2.285524224402    -2.016621168536     3.246410192568
H      2.417708606231    -0.702638921688     4.499901837719
Pd     2.059462569671     1.289857821681    -0.415630591618
C     -0.898486933394    -0.676741661854    -0.231115210839
O      0.075012346912     0.234049958169     0.125615762474
O     -0.695240214615    -1.399612919198    -1.216064397298
C     -2.204585387608    -0.618692959751     0.597359049805
H     -1.994994025413    -0.882235182721     1.642724507849
C     -3.271419761932    -1.548457156366     0.063324829956
H     -4.174079688212    -1.482232370778     0.705033925085
H     -3.540337338530    -1.240949556447    -0.967694030128
H     -2.902032878522    -2.594425877609     0.057678829706
N     -2.739632351741     0.745216762500     0.592764486568
C     -3.104426028912     1.365444530144     1.750767045379
O     -2.922506728784     0.886325697354     2.893586226540
C     -3.725608646361     2.694321103755     1.594351229418
H     -4.629960378623     2.572634760519     0.976768796268
H     -3.976441888772     3.085380124577     2.594372354844
H     -2.995777041634     3.351223451905     1.091346855715
N      3.108577527275    -0.159724322243    -1.564431717570
C      2.527040987516    -0.895090313227    -2.563098632853
C      3.277992527157    -1.835809673755    -3.241305717466
C      4.598889161985    -2.055336807420    -2.907474215211
C      5.144035564751    -1.316346700879    -1.887197598725
C      4.338364339911    -0.373749766089    -1.222839179046
H      1.489591555964    -0.725290576618    -2.829074760460
H      2.815809280976    -2.411389894093    -4.027459614298
H      5.189210350007    -2.801213341913    -3.433459021200
H      6.156974341194    -1.450368462677    -1.562831749246
O      4.934235640620     0.273659907094    -0.220295010376
H      4.266882721348     0.895033495242     0.208562649090

