# STO-3G

title

0 1
C      0.682498902044     2.273544075022    -2.253924562611
C      0.743155043332     1.461975803450    -3.404035403199
C      0.433682459517     2.003292070246    -4.667334283947
C      0.064038513190     3.358714573296    -4.781659335317
C      0.007713260110     4.172165808273    -3.632149676346
C      0.317929696797     3.629671961316    -2.368699202043
H      0.919313811862     1.848577620763    -1.280772352085
H      1.035285842741     0.418436883093    -3.308586389425
H      0.485020431812     1.375754125978    -5.554399603872
H     -0.172981421564     3.777886703859    -5.756921961490
H     -0.272170511604     5.219503376080    -3.719907217041
H      0.279540546717     4.259413950207    -1.482182331030
C     -1.693669318542     1.093873161587    -0.085281884881
H     -1.654525063182     2.531036032269     1.038062723486
H     -1.588119550616     1.726292718643    -0.971336570058
C     -2.909897030710     0.610153650576     0.274416066348
H     -3.803362100066     0.861229438783    -0.285261786511
C     -3.104470765762    -0.315734641082     1.399182443385
O     -2.096553065312    -0.794033163939     1.990101833539
O     -4.406277064120    -0.747738184979     1.706455701731
C     -4.514347522140    -1.697560600653     2.776115600326
H     -5.583480444375    -1.959473754185     2.929349764083
H     -3.959439042136    -2.632267615787     2.532820492955
H     -4.121316459650    -1.270096997902     3.726383396456
Pd     0.055603858197     0.497522010372     0.716571886172
C      2.310041125503     0.292064972547     2.521790938233
O      1.924770767052    -0.169078146496     1.332196019320
O      3.423265156087     0.123666241176     3.059131674320
C      1.194921682164     1.092931600834     3.299269041225
H      1.724141063989     1.843913512506     3.899697439648
C      0.427944824643     0.175287196579     4.227553601813
H     -0.333416041710     0.750372387487     4.791889981455
H     -0.089345320124    -0.606655983600     3.633181370042
H      1.121178543022    -0.310694661731     4.945676783737
N      0.197937004419     1.693112433649     2.369507880730
C     -0.418470909499     2.819676346507     2.519050922081
O     -1.386376641341     3.243380199246     1.699024904069
C     -0.086937582461     3.755462234622     3.607828715866
H     -0.254222116820     3.248915928851     4.572289782333
H      0.962804764038     4.070061413349     3.486063617761
H     -0.745963133753     4.641188847667     3.538320313118
N      0.199795994410    -3.154775336627    -1.114840037535
C     -0.546385258942    -4.167417167597    -1.654831287301
C     -1.646549334629    -3.867412188957    -2.442211370767
C     -1.989041413409    -2.552431149581    -2.691442849132
C     -1.214839297513    -1.564095557317    -2.137471830297
C     -0.118359299947    -1.944788379896    -1.337361283478
H     -0.275410950794    -5.199081933285    -1.463055055523
H     -2.231261038282    -4.668168933785    -2.863797713188
H     -2.844682854693    -2.307425765971    -3.314992317807
H     -1.407872073417    -0.525718795977    -2.307996612222
O      0.614326979801    -0.900257433076    -0.828363043491
H      1.427868409679    -1.199343662981    -0.342540750757

