# STO-3G

title

0 1
C     -0.141607431594     2.562251649812     0.762057479851
C      0.511884051250     3.764730335566     1.163329495565
C      0.337993100000     4.954031433468     0.448073391981
C     -0.480941473766     4.979071587456    -0.708449982082
C     -1.130419645991     3.810917247056    -1.125362876997
C     -0.978874095591     2.601490534619    -0.394038484303
H     -3.847588789275     0.682448044124     0.121575475255
H      1.139290610968     3.752734148610     2.052409347585
H      0.832534894927     5.862924429281     0.781652982919
H     -0.610675662536     5.905288622314    -1.262613649636
H     -1.775156618203     3.819899069123    -2.000764388055
H     -1.576897519231     1.738033538255    -0.675273865130
C      0.023809002741     1.268033460197     1.579488705767
H      0.193827925632     1.500062311355     2.635586189952
H     -0.889724165635     0.678591704959     1.536438941640
C      1.169058543393     0.455325531386     0.942807304816
H      0.903666806121    -0.572120459406     0.715278756166
C      2.554560853220     0.576230163951     1.439549210445
O      3.330323294315    -0.406551541207     1.324238225695
O      3.038303877289     1.842725057498     1.808457002801
C      4.401517016655     1.887138344140     2.253668696458
H      4.666000241262     2.930786242224     2.529924429305
H      4.545386447194     1.244248058045     3.152017445185
H      5.094439377790     1.553773968508     1.447886473507
Pd     1.065568582208     1.377892460845    -0.904261863662
C     -2.003380761066    -0.970609530630    -0.448221763793
O     -0.873296635500    -1.657999190067    -0.322195298394
O     -2.315837508199    -0.230548466916    -1.418678581385
C     -2.919206904094    -1.063538199156     0.795429064544
H     -2.325951471964    -1.321081264871     1.675182578725
C     -4.026758248351    -2.078821779265     0.623472305322
H     -4.644429488642    -2.107820672141     1.544838169631
H     -4.671999371484    -1.778999386956    -0.228204419237
H     -3.599594889882    -3.085410260223     0.436226417472
N     -3.526542965549     0.254847481365     0.984613205131
C     -3.371106168361     0.966450372671     2.131851456468
O     -2.753470679935     0.560682473782     3.147361922119
C     -3.945109102198     2.329720257294     2.147425928338
H     -4.625651299801     2.392943262224     3.012377934022
H     -3.105964406976     3.036390463322     2.261611364714
H     -4.495184293140     2.537061051142     1.212896875508
N      2.448845734861     0.150320198220    -1.720310743234
C      3.721207462485     0.612194018014    -1.921829487231
C      4.655894791724    -0.181520985874    -2.547291118392
C      4.330790781809    -1.451691305227    -2.965674491936
C      3.059387152861    -1.907922725457    -2.745152106560
C      2.110499948596    -1.086375003771    -2.089602702621
H      3.988385122128     1.611912158330    -1.599423145811
H      5.653551974668     0.194409441982    -2.703568049818
H      5.068620287312    -2.080947068296    -3.456355288379
H      2.752961692100    -2.892404986193    -3.037300099054
O      0.962380784956    -1.614120939611    -1.909326183895
H     -0.114489437769    -1.577083622082    -1.082498276299

