# STO-3G

title

0 1
C     -0.384025272682     3.312367886133    -0.327119760254
C      0.316684704133     4.423006788182    -0.888285154757
C      0.120709927021     4.790408698135    -2.222917928594
C     -0.756211246255     4.040357157302    -3.050446138986
C     -1.450596287590     2.945607983110    -2.521925687246
C     -1.287791559808     2.583299972441    -1.156918546202
H     -3.288753187215    -1.809152297962     2.003360642369
H      0.999158844173     4.988922608562    -0.256517832742
H      0.647051460181     5.650016157463    -2.631269044757
H     -0.892134643026     4.323539762312    -4.091398449972
H     -2.130294927836     2.367228664281    -3.141680177792
H     -1.929499320093     1.836096415157    -0.705403902025
C     -0.216844137808     2.922235898264     1.149475041079
H      0.218045226996     3.755023269226     1.711026828867
H     -1.191025454062     2.662810236236     1.567917647032
C      0.686467806281     1.665534284199     1.172745785408
H      0.167026177283     0.749644374172     1.446597187260
C      2.051788908977     1.731055120699     1.728220959829
O      2.776522795809     2.724625472100     1.454280587100
O      2.567850398056     0.607303719511     2.392524556510
C      3.957947160303     0.663090812446     2.739994128252
H      4.244560988312    -0.279644528858     3.254182854369
H      4.589152932461     0.762319451451     1.827979972853
H      4.161478698676     1.513510262040     3.429267137812
Pd     0.809598543014     1.394188258357    -0.873530294791
C     -1.753328576737    -1.006145340873    -0.558820212799
O     -0.851111916927    -1.201390224279     0.404091962063
O     -1.506221971683    -0.710760833457    -1.752581775191
C     -3.197326340704    -1.253178143943    -0.024970041492
H     -3.390231007264    -2.325147258354    -0.170244215906
C     -4.267353744319    -0.480811522869    -0.769282088289
H     -5.261879118346    -0.724101579002    -0.341887296339
H     -4.095578707366     0.608956174652    -0.670262018110
H     -4.258007059918    -0.753972535316    -1.844537294425
N     -3.306595892368    -0.988276039730     1.412249468199
C     -3.005846194555     0.204172373380     1.976837282778
O     -2.734652947944     1.254860093553     1.344376588224
C     -3.012842485707     0.230036955591     3.454348853196
H     -4.018016645934    -0.075410034282     3.790642868454
H     -2.248648505642    -0.483352496912     3.805885354390
H     -2.780484106106     1.252732952991     3.800092679298
N      2.502257028836     0.252489898717    -0.805891287491
C      3.662237571068     0.858912416942    -1.206799473164
C      4.848389534563     0.158301560920    -1.197273207103
C      4.883754124385    -1.156591231968    -0.792149224918
C      3.717628759943    -1.745668094490    -0.384788426178
C      2.508581226803    -1.008904780891    -0.390562925125
H      3.645137999391     1.892919607786    -1.531859241731
H      5.754395311768     0.646585981385    -1.517376118547
H      5.817434725917    -1.712742545331    -0.789079637298
H      3.681950581185    -2.762072280667    -0.046832657947
O      1.479986230576    -1.643999039462     0.033519568044
H      0.219852112155    -1.315397871830     0.158172523848

