# STO-3G

title

0 1
C     -0.121947857558     3.437010940172     0.476304026577
C      0.073828503173     4.088125582059    -0.764819490910
C     -0.996691219245     4.705001643655    -1.433300691243
C     -2.283897513217     4.700052342207    -0.860732983051
C     -2.486749239494     4.076229144743     0.387403977935
C     -1.416018369231     3.449235071369     1.049145986250
H     -3.113989601486     1.306535009372     0.189715494444
H      1.065780718093     4.091024617627    -1.213040192699
H     -0.828295653949     5.191393248603    -2.390857762463
H     -3.111510743898     5.188198394350    -1.369561039215
H     -3.470553227315     4.106285983149     0.851174261547
H     -1.576760168726     2.996405199412     2.023620564140
C      1.041712130907     2.814049106293     1.158995204479
H      2.969020305742     1.134550105557     0.313417141481
H      1.989923494402     3.326535328811     1.007226738147
C      0.948540060268     1.824571851673     2.160021565894
H     -0.015604163147     1.393423530517     2.391601628250
C      2.015903281318     1.518989439309     3.121665103136
O      3.209652368102     1.731280909633     2.779249283759
O      1.711477712847     0.703076712210     4.222295341518
C      2.815477601333     0.345863627937     5.066158874653
H      2.447588069402    -0.284069139359     5.905155699575
H      3.574084453252    -0.241879021105     4.500894872214
H      3.294898870809     1.253545186138     5.498131607279
Pd     1.473785505168     0.844512073780     0.242661300417
C     -1.187026805580    -0.461705577596    -0.699223416682
O     -0.646544567902     0.385399798540     0.078892024895
O     -0.515623152945    -1.234669140554    -1.530262728242
C     -2.721938095599    -0.581521662540    -0.665052944927
H     -2.973035825889    -1.614912048528    -0.403850176587
C     -3.365097903028    -0.228521544980    -1.988230417621
H     -4.464991749830    -0.348003913092    -1.903602585341
H     -3.141974761345     0.829973125095    -2.236000931649
H     -2.986412381001    -0.891932661266    -2.792564768586
N     -3.250326376845     0.313526879343     0.356902857347
C     -3.332079066763    -0.135711770443     1.645676934595
O     -3.080338872962    -1.307940701864     2.003111982535
C     -3.776734619108     0.841231088096     2.664650276024
H     -4.670147594550     0.420771702182     3.154931569357
H     -2.955911330619     0.954787839624     3.390530856227
H     -4.021633518119     1.809661931295     2.195216748737
N      4.042276241703    -0.191773719926    -1.470093393925
C      5.235154374860    -0.510207416146    -2.061625388212
C      5.295186955163    -1.539995465866    -2.982618210134
C      4.160129877477    -2.251461959381    -3.310866954713
C      2.979682689927    -1.910739001582    -2.700548191743
C      2.978814194080    -0.848447586526    -1.764284089746
H      6.129031930149     0.047333984874    -1.807114621588
H      6.237835709491    -1.784208406550    -3.444397191607
H      4.200862408829    -3.062196858346    -4.033664348125
H      2.067039115656    -2.429863271142    -2.912006455184
O      1.786759374101    -0.584600798626    -1.212400418618
H      0.586641962464    -1.047693163376    -1.484633476533

