# STO-3G

title

0 1
C      0.200522784633     3.241576940510    -0.729362204313
C      1.585832594508     3.608957515018    -0.684326054343
C      2.335131236733     3.782094471594    -1.877719139989
C      1.734144740910     3.559998665002    -3.121093727187
C      0.378075007180     3.154004129878    -3.183071989787
C     -0.375969805774     2.994630218462    -2.015771515538
H      0.752463729740    -0.327977988621     3.150237467311
H      2.030103534804     3.906664410285     0.262355401125
H      3.370122899399     4.108795927602    -1.815334700699
H      2.299281902838     3.697981069838    -4.039696013300
H     -0.084343982333     2.961854539062    -4.148227052741
H     -1.414035841568     2.682615639074    -2.100447175264
C      0.189475514459     2.241145392013     1.472943998207
H     -0.406766820519     1.516433702188     2.029995912891
H      0.948803705402     2.681847851424     2.126116219411
C     -0.600178847526     3.278868892351     0.624730900063
H     -0.450620417053     4.284743852590     1.024788996295
C     -2.081884535700     3.072344899134     0.530036098112
O     -2.848540304658     4.071549720529     0.531778128508
O     -2.587636569194     1.760197623749     0.523135821679
C     -4.011967603356     1.633675675644     0.417711813949
H     -4.284870257658     0.555893545696     0.408836451398
H     -4.518285388895     2.114598099515     1.285187363242
H     -4.381017526191     2.091739410710    -0.527913923404
Pd     1.143287779332     1.248266302192    -0.025583327794
C     -0.209557601607    -1.059417931783     1.120140827094
O     -0.880206034873    -1.210038433840     0.043566600638
O      0.955107295346    -0.459906045567     1.189520037426
C     -0.788182131549    -1.542795751484     2.468954711837
H     -0.725524880262    -2.639205319596     2.522287727174
C     -2.242043251278    -1.140041182237     2.635959429648
H     -2.644182082988    -1.554446757457     3.582975252617
H     -2.322629130129    -0.035559711904     2.668902172294
H     -2.850538726233    -1.531575485390     1.794801391521
N      0.010984135628    -0.917203303885     3.525873916969
C     -0.024964074683    -1.343951347210     4.812524530957
O     -0.794029802715    -2.234549805388     5.248149982373
C      0.908500292632    -0.684793323760     5.753819472033
H      1.562360121309    -1.468902335707     6.170261954204
H      1.507102558641     0.081058649668     5.234341143491
H      0.305648857177    -0.224472871411     6.555043683381
N      1.967240232058     0.265955980457    -1.763973095297
C      3.243548720940     0.568686034596    -2.155013090271
C      3.717491085982     0.135867345662    -3.376301734063
C      2.915432187280    -0.609711260913    -4.211532275143
C      1.648598869522    -0.915687075075    -3.791865932869
C      1.203372040033    -0.463693681511    -2.529534249882
H      3.877668180402     1.163018369213    -1.507878563175
H      4.721216637555     0.386776515554    -3.677003747685
H      3.280357088778    -0.951617178635    -5.176397449568
H      0.975989272980    -1.499346924732    -4.388183491660
O     -0.024903206530    -0.830278017069    -2.237787551153
H     -0.366504598139    -0.881824921063    -1.233545987036

