# STO-3G

title

0 1
C     -0.837859340569    -2.425934630146     0.455410420228
C     -1.362592681087    -3.149593559671    -0.641973016022
C     -2.747531690100    -3.344794842510    -0.755493819887
C     -3.623431712328    -2.823073822078     0.225052842340
C     -3.109534070830    -2.109933222369     1.320531775028
C     -1.712780960491    -1.910794016271     1.445012848549
H      0.238008922390    -2.324090828134     0.558876105502
H     -0.688235605048    -3.537093733357    -1.400726458426
H     -3.148143364411    -3.896405634999    -1.603011007892
H     -4.695055654131    -2.984368089068     0.132759967258
H     -3.777148226641    -1.721547772899     2.085589304081
H     -1.309873500747    -1.413306145862     2.322996338548
C      0.505609733473     2.271397197498    -1.584608162444
H      0.826937279433     3.291754720107    -1.792890656285
H      0.884392207155     1.501754088278    -2.251248431959
C     -0.316021547329     1.982721210245    -0.558185506713
H      1.347471901919    -0.504047126782    -0.160383524698
C     -0.897847886688     2.932455821859     0.417348785019
O     -0.711012236148     4.172541243030     0.285400126487
O     -1.848460773463     2.430474990663     1.325199827374
C     -2.425391869373     3.391924477218     2.219468002868
H     -3.145474077097     2.882213369010     2.894798898309
H     -1.638489440366     3.868851628579     2.846796572650
H     -2.974448881408     4.179039133733     1.653957545636
Pd    -0.848430055738     0.152513179805     0.025314546249
C      2.966754853345    -0.692528956110    -1.689270745388
O      1.665816981748    -0.934524289850    -1.794489508757
O      3.831498904556    -0.642771798661    -2.584974421215
C      3.370461277076    -0.450008208079    -0.166429962931
H      4.021884014188     0.429542173533    -0.123078192277
C      4.078512761532    -1.648945416443     0.422452240812
H      4.376795039052    -1.438134719158     1.468008096283
H      3.395252527050    -2.523497461709     0.408259109917
H      4.986245937957    -1.882417574341    -0.172337813767
N      2.093675925131    -0.259144895633     0.525099247306
C      1.643085693678     0.339474604183     1.606720179471
O      0.377611937890     0.527655952007     1.775118743206
C      2.582029196731     0.804711923218     2.635336506768
H      2.007587859949     1.299341281219     3.438917872912
H      3.114282282713    -0.073636499899     3.033705676930
H      3.281849438512     1.520633534070     2.171198767210
N     -1.931516718414    -0.028908964101    -1.682960665165
C     -3.249993787965     0.288850816113    -1.501346674455
C     -4.130393378266     0.230311460949    -2.559432701440
C     -3.693089727596    -0.142325665627    -3.808962640071
C     -2.369789752901    -0.452466104904    -3.969768113075
C     -1.485373059064    -0.385517526221    -2.866937106545
H     -3.601534206254     0.582300461727    -0.518910465422
H     -5.165990058830     0.481931696287    -2.403397841395
H     -4.381120840066    -0.188108862959    -4.648768973038
H     -1.969632535073    -0.746172925200    -4.919480186352
O     -0.265941893667    -0.705413363342    -3.170905486495
H      0.661023790725    -0.799377012071    -2.549038394113

