# STO-3G

title

0 1
C     -0.358848805312     2.521723718054    -1.993490868480
C     -1.218759477329     3.530491656035    -1.513146064649
C     -2.409526321478     3.834901567397    -2.202810368362
C     -2.742474857543     3.131751947637    -3.378446908175
C     -1.880764511737     2.128605687439    -3.865754171108
C     -0.690472415597     1.826310347513    -3.174199385579
H      1.019503855553     1.753306779207     0.836329797204
H     -0.955793021053     4.075656124793    -0.608726457684
H     -3.068750852078     4.616486323988    -1.831357173744
H     -3.660814805356     3.366775016262    -3.911823597426
H     -2.133726265726     1.588790537040    -4.775389885722
H     -0.025251072334     1.050875936743    -3.548246227333
C      2.497117788818    -0.248671118333     2.378856595856
H      3.308479016485     0.454178917283     2.553273274888
H      2.656299259414    -0.978883412100     1.590363032585
C      1.321731590346    -0.203163756563     3.044202748158
H      0.529163281301    -0.893367896214     2.784771456065
C      0.987866600156     0.783251197367     4.082611713407
O     -0.190495865540     0.811792547430     4.533993391405
O      1.984933466047     1.638106248325     4.591159416499
C      1.550429225612     2.597521069293     5.563970315588
H      2.417716098634     3.213668069170     5.884063010407
H      0.782256666464     3.276688675527     5.129818466128
H      1.133270465080     2.088728324857     6.462312356773
Pd     0.424257631129    -0.485985271288    -0.278235983869
C     -1.972140436157    -1.859179117780     0.389580552027
O     -2.754182175510    -2.762217359404     0.725862492734
O     -0.758907401999    -2.088011589128    -0.164048879174
C     -2.351253554509    -0.346636863306     0.537537839156
H     -3.020703762160    -0.253067297086     1.401540677279
C     -3.058907729375     0.150743670457    -0.706560305187
H     -3.318450191685     1.222796330850    -0.603289645974
H     -2.395324890212     0.032804814641    -1.587128239150
H     -3.989964765748    -0.430730310412    -0.871897601797
N     -1.103572430592     0.427405182141     0.675267101331
C     -0.909411116773     1.540472154999     1.305605847270
O      0.269219163509     2.169353330069     1.352900392264
C     -1.983207956242     2.194584341760     2.070227707835
H     -2.819259644346     2.424462933425     1.392241436768
H     -2.287192497778     1.509637447985     2.880858762835
H     -1.593568511785     3.127064046280     2.518444166991
N      2.199611117887    -1.063737160827    -1.181261425728
C      2.886316144203    -2.060612289932    -1.808384809728
C      4.162330650996    -1.805149202079    -2.282552478757
C      4.743588643004    -0.558141883885    -2.122111250919
C      4.025675363657     0.428842976052    -1.489813050286
C      2.732929277936     0.122539016202    -1.025757512227
H      2.435464667752    -3.038801868383    -1.930512158032
H      4.708411338520    -2.593324310194    -2.774726956617
H      5.748185680848    -0.364211558393    -2.488575160296
H      4.412375896399     1.412863341007    -1.320308096784
O      1.998966290269     1.028658664292    -0.415731484359
H      0.559589017345     2.278469376995    -1.464588010645

