# STO-3G

title

0 1
C      0.310792873731    -2.575935176566     1.327841080184
C      1.691807625460    -2.858346607446     1.137034042700
C      2.639434412328    -2.374478378671     2.038706100934
C      2.237226103503    -1.591883238637     3.155104041204
C      0.886389565380    -1.310298237987     3.370517814908
C     -0.090778687594    -1.805508146908     2.461464398108
H     -0.472542065861    -3.035101040900     0.728057646371
H      2.006598461981    -3.453130588472     0.283855073469
H      3.694735933956    -2.585248785211     1.885915738458
H      2.988915559142    -1.212635875224     3.843108967880
H      0.572765402089    -0.727127232236     4.232633787711
H     -1.148712711669    -1.718007670223     2.696405317556
C     -0.958616891357    -1.827195714937    -2.240531681945
H     -1.510416863238    -0.988268398003    -2.657737940185
H     -1.552589267260    -2.558810409712    -1.700789578372
C      0.387404632583    -1.939352173155    -2.320974979651
H      0.885788815858    -2.781539892135    -1.863153554817
C      1.284206216423    -0.956114187329    -2.951560744576
O      0.819301194850     0.127924483722    -3.405509426708
O      2.650089506971    -1.267609788312    -3.059028749199
C      3.495702937758    -0.223948613894    -3.561570895975
H      4.546549366874    -0.583873069571    -3.587291851698
H      3.198991606953     0.065834152771    -4.594554456321
H      3.458494448538     0.668899406583    -2.897240884003
Pd    -0.337633212541    -0.405028396167     0.492255625841
C      1.917803836473     1.229798930878    -0.200500630669
O      1.597570043705     0.047546783235     0.360617639191
O      3.091368021558     1.593841275255    -0.409607879884
C      0.703993032030     2.142472173365    -0.549932574431
H      0.961202176837     2.666378849668    -1.480366474407
C      0.471870222295     3.164160631212     0.544659378645
H     -0.375121405544     3.827159173521     0.277652051277
H      0.230070449993     2.641035906335     1.493387102562
H      1.382632546976     3.782638500415     0.689549448667
N     -0.519889127068     1.323793848514    -0.648038833220
C     -1.541345637749     1.548300993713    -1.425901040955
O     -2.657772017402     0.843908234879    -1.377129979945
C     -1.515979809215     2.607629148979    -2.451497637094
H     -1.349643699301     3.579974129861    -1.961394916733
H     -0.707936174195     2.366336301162    -3.165399354398
H     -2.482224463284     2.621505264794    -2.988800431701
N     -2.616268185532    -3.069863249834     0.609358891116
C     -3.438855465629    -4.158617034144     0.714299454676
C     -4.811029065351    -3.990378309363     0.722966097191
C     -5.361060007587    -2.729535677270     0.633336980166
C     -4.513698428789    -1.656018694917     0.537768080432
C     -3.115317478353    -1.883754070474     0.537176895979
H     -3.010496218034    -5.151818694989     0.781828390548
H     -5.450197405437    -4.854229363097     0.802199438767
H     -6.438847819862    -2.590353702532     0.641717182569
H     -4.878086397974    -0.650570792261     0.477226101126
O     -2.385342463402    -0.764600199643     0.441810337864
H     -2.664118986427     0.117005209235    -0.592853852597

