# STO-3G

title

0 1
C     -1.416534574755    -2.753102319263     0.188641570341
C     -1.878758965087    -3.161145332105    -1.079841394088
C     -3.232486802983    -3.503463442043    -1.273830601638
C     -4.140070977343    -3.433944899268    -0.196593650987
C     -3.685115063745    -3.032435403526     1.075634536411
C     -2.327817390224    -2.699311434949     1.265368877458
H     -0.363627559712    -2.515644840566     0.337480286686
H     -1.180180273166    -3.219330060385    -1.912588460461
H     -3.575522704892    -3.824422291750    -2.255540800826
H     -5.183343409950    -3.704506316578    -0.344170027344
H     -4.377263295968    -2.996879637289     1.914532788065
H     -1.973592968195    -2.426960844805     2.258371362857
C     -0.387868147212     0.364252853876     1.170833394789
H     -1.314889705530    -0.197467304262     1.170396797715
H      0.499107061891    -0.246052023234     1.326708103822
C     -0.367380853776     1.765321520072     1.181544809189
H      0.576030021245     2.278966335445     1.298088853475
C     -1.561831545023     2.622861163895     1.291287273769
O     -2.709684982863     2.104478821889     1.310763501274
O     -1.385708277668     4.014406572738     1.367065952024
C     -2.587232368561     4.795190944071     1.439941724092
H     -2.323485307497     5.873568229506     1.492909441265
H     -3.217981335473     4.636437207012     0.535580084000
H     -3.174125108986     4.535711693309     2.350320122596
Pd    -0.146083335001     1.065320509621    -0.958458003727
C      2.862254285472    -2.314682618819     0.550993000434
O      1.600039074636    -1.949055251121     0.650817042428
O      3.402292019611    -3.425184559400     0.764172616542
C      3.801111972666    -1.086182617113     0.085647986059
H      4.374998983359    -1.390245080765    -0.796557597635
C      4.728959371294    -0.649331881752     1.196993368414
H      5.442611104009     0.111856334983     0.828199009418
H      4.138628094194    -0.231304896336     2.038803850057
H      5.311783328316    -1.520955594184     1.562943460730
N      2.824008955618    -0.022408213505    -0.198408712055
C      2.818783988634     1.175571078937    -0.712186761639
O      1.727307847631     1.867346992929    -0.883877020503
C      4.081041315919     1.817823371212    -1.102690884982
H      3.849237199968     2.762401858505    -1.629180317339
H      4.656606094241     2.038148004245    -0.190498572333
H      4.630447004429     1.140573874919    -1.779515750439
N     -1.953137584423     0.413654590736    -1.585485277017
C     -3.207380178615     0.027276206735    -1.213278239996
C     -4.105259664464    -0.375438656596    -2.188133094464
C     -3.736216709084    -0.418775685503    -3.521596634970
C     -2.460468306595    -0.045083036709    -3.868715522132
C     -1.583282081107     0.372630740066    -2.849848318453
H     -3.499494041875     0.043076976233    -0.170334204526
H     -5.094483853683    -0.680524987409    -1.891919259664
H     -4.441556776008    -0.747699030427    -4.279541585790
H     -2.101019692481    -0.056916998104    -4.876466809382
O     -0.351645533198     0.734003637700    -3.106680653231
H      1.904486752569    -0.511584689397     0.034042147109

