# STO-3G

title

0 1
C      2.760069013876     2.471645758095     2.414640458811
C      4.013674099571     1.960510238676     2.018797330938
C      5.105075086018     1.999767067548     2.909122602019
C      4.948481551106     2.555150060902     4.194841123399
C      3.699090050367     3.076940430385     4.588548814248
C      2.607853343606     3.036518910400     3.697986074434
H      1.919337765719     2.448389534535     1.726164850991
H      4.133665553389     1.537566791232     1.023736701383
H      6.070748988548     1.606082152381     2.599342926403
H      5.792954036069     2.590290131125     4.879430128470
H      3.580710716890     3.518429824665     5.575575185873
H      1.647377896773     3.452751994799     3.995978698733
C      0.460032044306     0.156216252192     3.501030287657
H     -0.087453043159     1.084688549710     3.369772768561
H      1.371106842596     0.211509128801     4.087191265601
C     -0.105998129203    -1.074421615828     3.136100202516
H      0.398641692608    -1.994749911502     3.380327613594
C     -1.499016087757    -1.268923187268     2.690567693163
O     -2.180116684781    -0.281054251153     2.300688763913
O     -2.082718197105    -2.534462267123     2.863011953587
C     -3.461385163547    -2.654826716077     2.485601794227
H     -3.794317651353    -3.702987371141     2.646465915204
H     -4.101250793380    -1.984859492925     3.102609142443
H     -3.602718236714    -2.416878817067     1.408242033306
Pd     1.334939251991    -0.219381814933     1.531242451076
C     -1.597129820578    -2.506576962753    -0.666954459885
O     -0.543013099404    -2.563881785478     0.115632988331
O     -2.456565773354    -3.380695973727    -0.947872632835
C     -1.789909848686    -1.031545426372    -1.312911108951
H     -2.822418489621    -0.703921738897    -1.155000951083
C     -1.441216426457    -0.995470176042    -2.780717638154
H     -1.563055836197     0.035588777719    -3.169958305921
H     -0.385466021439    -1.310119127407    -2.922592409515
H     -2.107377101410    -1.681258984941    -3.344435859670
N     -0.798365502834    -0.238545667661    -0.580918202703
C     -0.773729567562     0.949074805038    -0.046015896187
O      0.103472454441     1.283524262523     0.869056318911
C     -1.751357310149     1.961298204212    -0.463539669267
H     -1.664271205571     2.097042152140    -1.554466755748
H     -2.754563178051     1.603440081545    -0.177530805445
H     -1.530520161769     2.910194982045     0.058721358802
N      2.774293255763    -1.623922608687     1.796596149658
C      3.270342812816    -2.596537531020     2.612435729964
C      4.318166562856    -3.384136483748     2.168460703548
C      4.859955895311    -3.200691711768     0.907158273577
C      4.340557447497    -2.217808989311     0.100616655042
C      3.273587318268    -1.440354767436     0.589617501263
H      2.853636726946    -2.742580412391     3.601886172006
H      4.710947692878    -4.152601701085     2.813409497404
H      5.679280847718    -3.824638240450     0.560520271476
H      4.699929981392    -2.023141791775    -0.888618405174
O      2.723155524873    -0.502068094826    -0.136287422900
H     -0.167529183696    -0.995551168929    -0.174269138898

