# STO-3G

title

0 1
C      0.974698765468     2.323278844005     0.825270862941
C      2.328280647795     1.973479552005     0.496667698273
C      2.998285777374     2.617694766063    -0.584521742790
C      2.348058086153     3.583179043473    -1.355245596357
C      1.009592683579     3.933813780743    -1.043138618333
C      0.343375588871     3.317981576981     0.017831125807
H     -1.960576313840    -0.321821409662    -0.998939357502
H      2.916781236385     1.347474782647     1.159429376725
H      4.031799282346     2.352238413199    -0.789946978371
H      2.862743404845     4.069716436932    -2.178911902606
H      0.500986771861     4.694507611348    -1.629615963829
H     -0.670920319804     3.621822440992     0.258127016898
C      0.203679937742     1.820196778519     2.050122868506
H     -0.064309685306     2.683179489241     2.674134887149
H     -0.750019992346     1.401091520740     1.708659075492
C      0.876820812394     0.733777736094     2.925390753731
H      0.080157165222     0.239105134055     3.484080890408
C      1.936348757137     1.145963866238     3.892540248923
O      1.992241554021     0.575020594583     5.018260983106
O      2.721652705455     2.288676529069     3.629857399640
C      3.657080864121     2.655969845468     4.652301878385
H      4.218190549967     3.558207429051     4.328975720542
H      3.127687435901     2.895726191577     5.602091271760
H      4.385966561805     1.833964035453     4.832437789109
Pd     1.067327940258     0.048694223636    -0.127111231498
C     -0.756384000907    -1.974343924815     0.771285055722
O     -0.336861409029    -2.102438500718     1.970335075883
O      0.036915672274    -1.782936740900    -0.274344199843
C     -2.270427821731    -1.852084500054     0.473833227745
H     -2.817576802214    -1.905695722028     1.417681838298
C     -2.778191106496    -2.901124877548    -0.489130126321
H     -3.867481861127    -2.758723443200    -0.644205506250
H     -2.262051808011    -2.790049653820    -1.464682233685
H     -2.595638325306    -3.915827338903    -0.079982813297
N     -2.487787628625    -0.531599741032    -0.133694217158
C     -2.998249339476     0.484685237825     0.608545319574
O     -3.282810965255     0.427735300029     1.834190387570
C     -3.274708002621     1.748772188883    -0.111174528043
H     -4.367507583197     1.894951578652    -0.096173885969
H     -2.783739622286     2.562056479065     0.442984276928
H     -2.911698152931     1.701261400418    -1.152660973307
N     -0.678886895735     0.386572692050    -2.321692293988
C     -1.021705068110     0.575803223437    -3.634994960568
C     -0.025018813539     0.746790221028    -4.578868945730
C      1.306005570033     0.716886749942    -4.215629878332
C      1.616559336514     0.515773960231    -2.891227499120
C      0.546925668625     0.362488146606    -1.962983990996
H     -2.065989371053     0.593163380247    -3.925400452790
H     -0.298560770665     0.897010261453    -5.611553073065
H      2.087911647591     0.845427266729    -4.960418494688
H      2.637477868256     0.481715357057    -2.560400865032
O      1.421123161908    -0.302545042661     2.011322241976
H      0.907760139340    -1.184838643436     2.137942952309

