# STO-3G

title

0 1
C      2.962540008957     0.175690157768    -2.005741960693
C      3.226538863769     0.873082238834    -0.786942889159
C      4.092566123885     0.300718717424     0.188725547733
C      4.683225482918    -0.942078350525    -0.053357410948
C      4.432880392916    -1.634060227702    -1.270570401625
C      3.584643150862    -1.085623088739    -2.233406554140
H      2.373805125558     0.684297807281    -2.767426066581
H      2.860745214207     1.889108991042    -0.662602243041
H      4.292444769837     0.838155360381     1.111795446495
H      5.339159898207    -1.386133671696     0.691203720014
H      4.900989710517    -2.599631925355    -1.443429117257
H      3.391018179476    -1.616231143220    -3.161522058713
C     -0.055000801534    -1.202293758610    -3.230583954175
H      0.487758705112    -2.030291949471    -2.777433092080
H      0.514392169019    -0.308258403394    -3.466529867597
C     -1.385810789299    -1.238500970718    -3.474735478160
H     -1.876231919424    -0.376024351473    -3.903288878952
C     -2.277064764487    -2.363885256551    -3.148376068705
O     -1.855724430479    -3.316551929626    -2.433266382463
O     -3.579128194826    -2.366390744170    -3.676710057146
C     -4.459677185373    -3.373893094440    -3.162097070656
H     -5.456765360636    -3.267629407397    -3.640119541886
H     -4.070896992660    -4.393232671397    -3.383716187383
H     -4.591318881140    -3.252673851820    -2.062416972288
Pd     1.047110918431    -0.131884418186    -0.634301288870
C     -2.778269992104    -0.290138310357    -0.462578075395
O     -3.845548396354    -0.843273136861    -0.762195630245
O     -2.340618708904     0.816498292963    -1.110148217575
C     -1.889571003894    -0.846703208425     0.695096580798
H     -2.410047061297    -1.751014782742     1.040268481900
C     -1.776441242340     0.123391372926     1.852156253626
H     -1.234713116546    -0.361757588372     2.690362607794
H     -1.205596698232     1.022098672267     1.539091261119
H     -2.785617262630     0.426076670188     2.201458120298
N     -0.542137084453    -1.140666788107     0.252171312657
C      0.152742725867    -2.246796022177     0.305582936258
O      1.404513372365    -2.146202569252    -0.120815161606
C     -0.375908319714    -3.530442447880     0.787727539180
H     -0.696463814821    -3.406813906461     1.834747278837
H     -1.219016546083    -3.813593780312     0.132448759771
H      0.425457051520    -4.287709676418     0.715119677801
N      0.944027580384     2.207806039104    -3.059243852830
C      0.979046560092     3.099929393318    -4.096878334510
C      0.247832113275     4.270734613314    -4.028060384057
C     -0.521057465958     4.549977374166    -2.918707529823
C     -0.534457520397     3.641626220576    -1.892212423397
C      0.234964139465     2.458698453876    -2.011597851100
H      1.579201259429     2.882831993789    -4.972763693433
H      0.279154090775     4.964718927998    -4.851736086095
H     -1.101409551530     5.466934840204    -2.859652594455
H     -1.110359188940     3.800549587805    -1.003466880585
O      0.118739966868     1.643803420157    -0.951403916698
H     -1.384371691889     1.122065636477    -0.946984057162

