# STO-3G

title

0 1
C     -3.257648100046    -2.152507239778    -2.960939822793
C     -4.446785163748    -2.681341699917    -2.411118925448
C     -5.696447713314    -2.152601267481    -2.799120127583
C     -5.757175012424    -1.101481988391    -3.734332584301
C     -4.569543361614    -0.573151383011    -4.283198692918
C     -3.321518308316    -1.097752798818    -3.898590691410
H     -2.283682582776    -2.557647454727    -2.703905745663
H     -4.401004968513    -3.487933165515    -1.684557551894
H     -6.611218583895    -2.558365105633    -2.374392628667
H     -6.720862886690    -0.694875804310    -4.032561355848
H     -4.618227303372     0.239317950979    -5.004307600583
H     -2.394215329559    -0.710718932815    -4.309896983005
C     -0.507402366666    -3.381971851373    -0.806186307353
H     -0.028672306634    -3.363174919461    -1.780885583537
H     -1.573666308858    -3.591085044571    -0.793656789088
C      0.142449847356    -3.123014786940     0.352990214015
H     -0.407488209962    -3.110222823452     1.285104060525
C      1.569162272143    -2.782554550203     0.475270969867
O      2.275714039494    -2.627498984168    -0.559676719396
O      2.105802980915    -2.598989094611     1.760628068291
C      3.464508521041    -2.143456569766     1.819245464788
H      3.769333395910    -2.036037396429     2.882550502370
H      4.149927596472    -2.872091768196     1.330615293751
H      3.568929705101    -1.146942040784     1.334307417978
Pd    -0.711787611058    -0.300116202629    -1.072005386686
C      1.499132304823     0.911711744211     0.295073372517
O      0.182798865559     0.631953486202     0.488234554259
O      2.240002588399     1.314867808664     1.208554300297
C      2.035872550223     0.699089976707    -1.170158938078
H      2.959461401410     0.106936027995    -1.095890770439
C      2.340144297679     2.023333051978    -1.837159897735
H      2.739105365245     1.853021821161    -2.857114387798
H      1.407636181782     2.620344879234    -1.912776327067
H      3.090532387267     2.586481637439    -1.243627841247
N      0.998731325362     0.030887879165    -1.936454422210
C      0.913711041000    -0.758671123528    -2.987979143408
O     -0.253569729427    -1.286274596374    -3.232727867101
C      2.063653361754    -1.059725950298    -3.855154648708
H      1.805704454432    -0.739535948933    -4.878262395121
H      2.958346338036    -0.531315394479    -3.492392100684
H      2.229334541663    -2.150922780537    -3.820312136766
N     -3.430434828416    -2.617175753030     1.028712375809
C     -3.575571836062    -3.224945451760     2.247563437504
C     -3.032033287057    -2.639511003618     3.378651011055
C     -2.359577214783    -1.435666129248     3.288599427345
C     -2.251294881883    -0.846438900372     2.055063117751
C     -2.819428358874    -1.502473784230     0.947093541872
H     -4.100694991199    -4.170175469071     2.320089273054
H     -3.138628285203    -3.127090509093     4.333754549340
H     -1.929743610106    -0.967009747873     4.170164593744
H     -1.748471302035     0.090474732638     1.914753221401
O     -2.654265209670    -0.861640769914    -0.255991189333
H     -3.180847113551    -1.296312744159    -0.977019946613

