# STO-3G

title

0 1
C     -1.844382169368     0.079426821941     2.441976406956
C     -1.397735430008    -0.926115199842     3.322748322532
C     -2.161866107032    -1.247067506466     4.462461091195
C     -3.368177345729    -0.565044656211     4.720852210468
C     -3.810014240101     0.444253216513     3.841455908982
C     -3.046273869192     0.768538760553     2.702274516327
H     -1.245493767704     0.304285442560     1.564669939443
H     -0.467879219530    -1.445964044189     3.109162718483
H     -1.818378017071    -2.022952860956     5.142864363306
H     -3.957931396333    -0.815858300658     5.600161417360
H     -4.740229457012     0.971437095348     4.042690056993
H     -3.375033581870     1.556278741009     2.028132299637
C     -2.655878819624     0.431061027307    -2.002386150266
H     -1.852637267892     0.074194838993    -2.646414963475
H     -3.096804004771     1.388883212280    -2.274084996741
C     -3.120567683544    -0.271433670229    -0.937216187431
H     -3.913750257029     0.125289979618    -0.320141227399
C     -2.618457111934    -1.590516326888    -0.513475195865
O     -1.626808196110    -2.105334509083    -1.100479745975
O     -3.274372554273    -2.255533214205     0.533845993618
C     -2.627509119264    -3.434074291840     1.033357744090
H     -3.221424497909    -3.847362001460     1.876697431088
H     -2.550917426485    -4.212422847681     0.241716222671
H     -1.611419343056    -3.193818471108     1.421143463066
Pd     0.561566556705     0.063762051949    -1.047301374619
C      1.183800132958    -2.107857356042     0.676923788885
O      0.838149520820    -0.791535010816     0.756138879941
O      1.184051167467    -2.849590249631     1.675634874764
C      1.585306706862    -2.641295201273    -0.751948556396
H      0.974182562123    -3.536393580469    -0.939987797194
C      3.049345561171    -3.014887105360    -0.809008284150
H      3.293229821398    -3.426635348726    -1.808886062593
H      3.666771555282    -2.109791620315    -0.633188458375
H      3.281112854380    -3.776876045738    -0.035691958147
N      1.349746312720    -1.583417826298    -1.725104586728
C      0.881022156005    -1.526716727933    -2.961376386046
O      0.405823654926    -0.377271063617    -3.358562403724
C      0.894375186292    -2.697431310981    -3.850231306905
H      1.938092568687    -3.036621917636    -3.952395800325
H      0.261213261546    -3.474719617736    -3.391087348247
H      0.484222527652    -2.398513267615    -4.831519245210
N     -1.416548388205     3.327359450334     0.993358541825
C     -1.287437224138     4.123719390959     2.100033067893
C     -0.083799323881     4.162546601439     2.784821361735
C      0.984971036295     3.394227338726     2.363533118768
C      0.824153981260     2.617335459622     1.243564973032
C     -0.428070574492     2.633009103450     0.600594637423
H     -2.128649036022     4.716672995582     2.439296786252
H      0.008336373687     4.780609833112     3.662416912436
H      1.925445522329     3.400405411229     2.908014062099
H      1.597689179176     1.970906225941     0.882767643494
O     -0.536633837701     1.798854386767    -0.482083397167
H     -1.464186240710     1.714033230614    -0.811244254097

