# STO-3G

title

0 1
C      3.108510518815     0.219923562507     0.270475917367
C      3.653664410770     0.163369505428    -1.027940686970
C      5.051859443158     0.174198749753    -1.199619847504
C      5.901176669770     0.244375184942    -0.076256315228
C      5.352110555318     0.304132775804     1.220373344237
C      3.953430184858     0.290581267416     1.396343101308
H      2.027785121613     0.203812605296     0.386849485254
H      2.981512666994     0.119371732172    -1.880018462721
H      5.475849740511     0.129358333333    -2.200465335794
H      6.980766309819     0.252618682513    -0.210859663774
H      6.008666281881     0.360259344794     2.085943619605
H      3.518310902296     0.339996465947     2.390978437116
C      1.431232638029     3.111915457192     0.180978078528
H      1.238262807359     2.460940305775    -0.671524977746
H      2.467735452268     3.168464742742     0.499442678144
C      0.450084263803     3.802025869399     0.818833978131
H      0.681698745357     4.428771062188     1.668546994156
C     -0.976884577997     3.750498216566     0.453440849016
O     -1.353420882516     2.989990051547    -0.479828528926
O     -1.899102599072     4.472556479657     1.228404557779
C     -3.284087184344     4.196326197485     0.970966384026
H     -3.916215184234     4.823494072648     1.635442212447
H     -3.549861400631     4.430292867562    -0.084560720247
H     -3.521354274437     3.128179438811     1.183518906133
Pd    -0.903140538161     0.531396824364     0.004194186710
C     -3.701687515575     0.579980173529    -0.438084972266
O     -2.820965179451     0.537759828356     0.605219152254
O     -4.910253883205     0.809927018749    -0.269300686393
C     -3.104130097800     0.305393402443    -1.874944342849
H     -3.415578137077     1.142881206655    -2.516092841110
C     -3.633946063533    -0.989917317148    -2.449411261624
H     -3.246748157149    -1.134143354539    -3.477490565204
H     -3.298840771320    -1.836990837613    -1.815641672979
H     -4.743475572715    -0.969251530681    -2.480873863394
N     -1.658571314450     0.196516476039    -1.759476268756
C     -0.598757391506     0.458536271145    -2.498853583627
O      0.546270502787     0.562092385111    -1.879262139389
C     -0.692170420182     0.616787153059    -3.957230478248
H     -1.077931543980    -0.325815325574    -4.378242934385
H     -1.374925182202     1.457204681976    -4.163635404995
H      0.316467845172     0.832671574811    -4.353144260955
N      1.257875254413     0.205518145209     3.668369498661
C      1.404474993197    -0.668721689076     4.712498375262
C      0.444939425626    -1.642607272170     4.936884954444
C     -0.664608654252    -1.732737867441     4.117854484079
C     -0.778681508414    -0.841620551533     3.080729479015
C      0.238512927219     0.117755797809     2.913045168412
H      2.272073663330    -0.597327298316     5.358012139322
H      0.564891626918    -2.326792616976     5.760622458558
H     -1.429589308549    -2.484355902077     4.294293723715
H     -1.629674579880    -0.831526123866     2.427438038980
O      0.048806940673     0.977284227950     1.864879544377
H      0.720812912656     1.697701910334     1.790393514259

