# STO-3G

title

0 1
C      2.016729288087     1.531878696950     0.248326437383
C      2.600167141340     2.798231695887     0.451009654142
C      3.987886816387     2.909533585332     0.667523236516
C      4.792714513934     1.752632975928     0.681172617480
C      4.210005460201     0.487230326013     0.467483794181
C      2.822818869824     0.375123534495     0.246204064130
H      0.942772946921     1.447379636884     0.082998094416
H      1.977094369163     3.690651692144     0.428503235795
H      4.435816986755     3.888490598206     0.820286640990
H      5.863994906221     1.837877506063     0.847766835963
H      4.830689826340    -0.405715592657     0.463902327739
H      2.370192920490    -0.593971930652     0.049899033763
C     -0.501300281902     2.679722732763     2.734340798314
H      0.450221178051     2.694731595591     2.208316943746
H     -0.459046788916     2.295009655916     3.749886097392
C     -1.654143492340     3.139540142387     2.184166858886
H     -2.579587839318     3.098105603747     2.740868746351
C     -1.769230113074     3.740672080841     0.844501173396
O     -0.765069619051     3.757796706870     0.078477926290
O     -2.926541612829     4.480161708122     0.546074017353
C     -2.957935097675     5.104102699656    -0.744791194096
H     -3.928988987401     5.627572063142    -0.874980877140
H     -2.138804841405     5.851179130516    -0.843279469977
H     -2.867373910563     4.345158490136    -1.553719316622
Pd    -0.997010849059    -0.397107811686     0.129644967687
C     -2.962575042760     1.108985988785    -1.283423707750
O     -2.502529566298     0.940354833598    -0.007937553765
O     -3.853662773923     1.927545934319    -1.563178093090
C     -2.303578867127     0.204873502934    -2.399176056994
H     -1.945206421340     0.878816792752    -3.190863180627
C     -3.312372826429    -0.762490340267    -2.981682318122
H     -2.843974775121    -1.367918853713    -3.782924083911
H     -3.675854509260    -1.442316590213    -2.183331386491
H     -4.173135681912    -0.205310480939    -3.407697011981
N     -1.234158156971    -0.558772933983    -1.788785344769
C     -0.175684528215    -1.277698262936    -2.083320714563
O      0.520660625629    -1.717619655666    -1.063976370213
C      0.243022522028    -1.567355008699    -3.461480630000
H      0.222518329560    -2.662053105165    -3.594523942466
H     -0.440242974801    -1.071833165081    -4.169239995961
H      1.270885476144    -1.184066609523    -3.588128739930
N      0.851557395946    -0.111909111470     3.928383049801
C      1.917727054488    -0.674861225552     4.577512738195
C      2.468134047894    -1.855044276594     4.105196838015
C      1.947789781383    -2.468109581305     2.982024222523
C      0.875192136710    -1.880570901574     2.359759015416
C      0.374486623706    -0.675525006899     2.893154986669
H      2.328350650433    -0.194237101097     5.457744488311
H      3.310774701273    -2.289682820094     4.616780439734
H      2.377695015668    -3.390184701810     2.599901572573
H      0.435637126387    -2.300865243806     1.477856914426
O     -0.676703687869    -0.131616185007     2.198021616612
H     -0.888685472147     0.800597555770     2.480812325383

