# STO-3G

title

0 1
C      0.029448902825    -2.554471472612     1.253776798968
C      1.335828964070    -2.940562284770     0.852385078564
C      2.441110366175    -2.595305945722     1.633823188942
C      2.265790485635    -1.864694122919     2.834644112891
C      0.982426668817    -1.499108012163     3.258609109020
C     -0.146523349367    -1.848577489032     2.475955520404
H     -0.831656412267    -2.912587416519     0.693666396348
H      1.470890271769    -3.488688374017    -0.073668883829
H      3.440963915840    -2.873332138932     1.312743369992
H      3.133563340605    -1.588057285368     3.427996746315
H      0.843812786566    -0.958286157229     4.191056607989
H     -1.147642697441    -1.687804710390     2.865595716280
C     -0.779283428900    -1.983619063245    -2.178125374023
H     -1.376778707534    -1.080723625024    -2.271234037903
H     -1.298469960459    -2.857140316711    -1.779991909864
C      0.532882120689    -2.056908788661    -2.499835511095
H      1.074208518434    -2.983615165613    -2.362897099172
C      1.349029885042    -0.938487787722    -3.003945155772
O      0.818318832719     0.182571751129    -3.244829162292
O      2.693914011090    -1.191269591985    -3.326765970932
C      3.471099866553    -0.048535415173    -3.710312676308
H      4.512233736441    -0.368576277913    -3.928588760571
H      3.052587494277     0.428445735133    -4.624986221975
H      3.508904023188     0.697456696032    -2.884242045402
Pd    -0.454434439708    -0.283228544053     0.414778786257
C      1.816504432835     1.285079192883    -0.281592150842
O      1.480160212206     0.015324798806     0.076732596437
O      3.001086178005     1.635183971654    -0.433143572708
C      0.600969138407     2.237926082929    -0.475078968443
H      0.836582666013     2.857458577114    -1.350525116793
C      0.414847188639     3.145314357149     0.721946515378
H     -0.442785734016     3.825680273968     0.543894463777
H      0.205010716108     2.533280796419     1.622397986567
H      1.330787648005     3.749670440067     0.890950675222
N     -0.620219269580     1.428831514079    -0.620753128665
C     -1.560857535549     1.514971095246    -1.588162165289
O     -2.482007353400     0.665762173610    -1.776728564076
C     -1.540688915116     2.706896958178    -2.472680569225
H     -1.546531783530     3.613329992600    -1.846373247312
H     -0.643030674123     2.638635748421    -3.110573189575
H     -2.440490295494     2.686135147428    -3.114168706181
N     -3.562886620505    -2.198114187199     2.091927911318
C     -4.283369040428    -3.362940765148     2.067339601518
C     -4.697762306978    -3.889813636562     0.855025967221
C     -4.406484578658    -3.236986969856    -0.327530019099
C     -3.681547131680    -2.074353123972    -0.262745134485
C     -3.284728179925    -1.602755284113     1.001353239268
H     -4.520835747415    -3.870933751439     2.994775102595
H     -5.266509853353    -4.805197999079     0.840503439734
H     -4.751373326193    -3.627290796124    -1.281528687984
H     -3.470826511406    -1.480141428325    -1.129820617592
O     -2.570138447982    -0.425799491203     0.998465565610
H     -2.628878304141     0.012727801314     1.870453728020

