# STO-3G

title

0 1
C     -2.747741754847    -0.906109450758    -0.371225047500
C     -3.480271483645    -1.593422908360    -1.358930708010
C     -4.694537582916    -2.224769076389    -1.024032525396
C     -5.175614609827    -2.166963855652     0.299500866016
C     -4.437073618933    -1.486611689688     1.288734884883
C     -3.220087910618    -0.859171797962     0.956140992108
H     -1.808791394505    -0.416749764439    -0.629932442193
H     -3.101747395474    -1.641289832481    -2.378432229160
H     -5.257467356814    -2.757414968868    -1.786776846279
H     -6.112939140602    -2.653826302978     0.558561097410
H     -4.800623254374    -1.451713790725     2.313033672567
H     -2.627474169647    -0.357715614662     1.717694106070
C     -2.484944817998     1.829273602715    -2.866621641021
H     -2.827070211178     0.945040563725    -2.334494665558
H     -3.111413171631     2.708937312810    -2.745451454037
C     -1.373673902194     1.835536980939    -3.645120631626
H     -1.065804856284     2.740602251994    -4.149521562922
C     -0.513335022274     0.667349594439    -3.898336965619
O     -0.737695825845    -0.420695842459    -3.296202628366
O      0.419488632686     0.741818614483    -4.946727320889
C      1.207466812517    -0.434581102406    -5.173913999023
H      1.916099406503    -0.244690194231    -6.008291262475
H      1.805038741327    -0.690948643080    -4.271235573542
H      0.561189422416    -1.297338138100    -5.451302331049
Pd    -0.035782859082     1.288647004397     0.167236269820
C      2.139044929118     0.682464286418    -1.562586443409
O      1.056671771626     1.516900757259    -1.514343755619
O      3.019447251023     0.784545054483    -2.432079675974
C      2.187989438002    -0.459762434472    -0.473405030661
H      3.218333948818    -0.515710728193    -0.097800929765
C      1.796036068898    -1.793704274905    -1.076200590232
H      1.857461033450    -2.593596414329    -0.312074456175
H      0.752398194354    -1.738004931330    -1.453980486388
H      2.474598054501    -2.046154603846    -1.917433162166
N      1.232595016849    -0.122675507282     0.563141936726
C      0.801090707465    -0.493001021372     1.745651639034
O     -0.240570859940     0.156146044801     2.205235789884
C      1.436604959758    -1.555078665126     2.536952866046
H      0.692229144092    -2.357618250524     2.675217759971
H      2.325638873441    -1.930380951325     2.005353424019
H      1.724218119755    -1.124686297838     3.511876288287
N     -3.718528880503     3.300032697543    -0.157612872267
C     -4.848628104930     3.452273710818     0.600745783298
C     -4.799827085195     3.220028875697     1.965488765916
C     -3.616634499239     2.837538136250     2.567273198811
C     -2.501792560941     2.702015645990     1.778876576044
C     -2.629765825648     2.948343124864     0.397146076179
H     -5.778189960526     3.750307499833     0.130028134868
H     -5.693703625415     3.335228811457     2.555837312045
H     -3.569938886956     2.647843070459     3.636366971516
H     -1.556769467919     2.401177369146     2.184886669022
O     -1.478555235321     2.760970407295    -0.328312726535
H     -1.639299738602     2.765340124441    -1.308970969229

