# STO-3G

title

0 1
C      0.231287945554    -2.486235369434     1.016229348002
C      1.548586157225    -2.741741011922     0.548427391630
C      2.650800907512    -2.422216944367     1.345436817722
C      2.462569546536    -1.847109529500     2.625589846185
C      1.170274453792    -1.604979601754     3.109852400455
C      0.045673681604    -1.930827855359     2.312373389816
H     -0.619420201231    -2.836710790423     0.436911911167
H      1.695170730819    -3.159751807776    -0.442056177174
H      3.656448884654    -2.597310526994     0.974422058513
H      3.326964471110    -1.589948499235     3.232614356002
H      1.024080797168    -1.180375698474     4.099583064995
H     -0.954802468978    -1.862694697516     2.730788973318
C     -0.587764839838    -2.670522908042    -2.272517592923
H      0.227004708643    -3.389944018841    -2.252418798769
H     -1.567681543226    -3.059864205609    -2.001682036394
C     -0.427990466300    -1.365076389858    -2.591602403206
H     -1.274327667351    -0.692995165136    -2.563425381138
C      0.859175687067    -0.742904518041    -2.942941173389
O      0.877328667272     0.477868433419    -3.263120224595
O      2.025453478856    -1.529999139384    -2.984852608119
C      3.256448321598    -0.808946241861    -3.132159493000
H      4.104481274540    -1.525859207787    -3.144596041176
H      3.270357612146    -0.233592978699    -4.085122059856
H      3.409507006419    -0.112832507969    -2.275633965162
Pd    -0.367567405209    -0.197264750552     0.365053600935
C      1.833405984693     1.488380797666    -0.280717124440
O      1.540103395990     0.185992194592    -0.008677545014
O      3.005216892559     1.881728307522    -0.419778413234
C      0.585837883699     2.412601239230    -0.385238434738
H      0.778941483901     3.091094294056    -1.226767078947
C      0.404615925991     3.237837329477     0.870876892374
H     -0.477685784730     3.900240343989     0.758970651479
H      0.239234992358     2.564836074811     1.736439179523
H      1.306037622914     3.859830159422     1.053687733714
N     -0.613447106613     1.572616728716    -0.552475903415
C     -1.603228542579     1.714840156514    -1.460879956288
O     -2.497066523599     0.847798910942    -1.693717816741
C     -1.661403550568     2.980320054533    -2.234286177168
H     -1.669395437923     3.826991088404    -1.529240819237
H     -0.791278113922     3.004868490668    -2.912408868546
H     -2.588241635820     2.984614391214    -2.836647409109
N     -3.447811527784    -2.290152087014     1.977260240018
C     -4.173284209606    -3.447942463004     1.879169958530
C     -4.581711759396    -3.900266871588     0.635010119000
C     -4.276048803945    -3.181898683249    -0.505141618709
C     -3.542502923240    -2.030900915975    -0.367262674607
C     -3.158635631057    -1.633892120335     0.925690449473
H     -4.420794853319    -4.007852146991     2.773521748002
H     -5.155864031922    -4.809551331136     0.562911439005
H     -4.612933818313    -3.515212302828    -1.483278775046
H     -3.307544485111    -1.394656997446    -1.197988985892
O     -2.447151698249    -0.458049232674     0.998542784712
H     -2.503377835155    -0.084212918056     1.900637398348

