# STO-3G

title

0 1
C     -2.642032795357    -1.965611833899    -3.085562708199
C     -3.929139231221    -2.358645314954    -2.621144784861
C     -4.976175956241    -1.425195698190    -2.570444595640
C     -4.756727556226    -0.077768487226    -2.969443175248
C     -3.499820110828     0.319318016315    -3.436886763239
C     -2.433288337594    -0.623627890413    -3.506696887382
H     -1.831613745471    -2.674148868279    -3.219992367519
H     -4.101977389728    -3.391662580794    -2.333212738271
H     -5.963462115099    -1.733257364176    -2.235764956889
H     -5.573694553689     0.637115447871    -2.922615848904
H     -3.334763055738     1.340623719781    -3.768552893238
H     -1.508081242480    -0.364026043758    -4.010975114028
C     -0.646152104793    -3.632775972282    -0.721432992319
H     -0.156008973872    -3.615264617902    -1.690880185113
H     -1.695062469372    -3.922668008275    -0.711670705594
C     -0.029352196933    -3.287163830276     0.433570392192
H     -0.584764730183    -3.287974986065     1.362524765304
C      1.360320355765    -2.816072858575     0.554357292674
O      2.083730930315    -2.693090080167    -0.474088148068
O      1.874872451716    -2.575798839851     1.840751812005
C      3.191027689028    -2.008717484426     1.893435165126
H      3.482782855766    -1.855667007531     2.954286017125
H      3.935465990766    -2.687517674313     1.419763795226
H      3.213507017749    -1.017588724626     1.386172444563
Pd    -1.152679157404    -0.716728277621    -1.392641152322
C      1.142783674622     0.624875059891    -0.307223183030
O      0.010134218091    -0.000597436114     0.094126647889
O      1.923700082344     1.182433787275     0.486362469842
C      1.366599856886     0.581079100594    -1.847429572848
H      2.445416391704     0.452216623557    -2.001899592391
C      0.937078370081     1.872764108173    -2.508407699590
H      1.132245972596     1.815246622869    -3.598916135610
H     -0.149058776824     2.030432665921    -2.347679508139
H      1.501887976697     2.728143555671    -2.081724846794
N      0.546979215709    -0.501864353703    -2.415865632524
C      0.940745536053    -1.502980048966    -3.228791177321
O      0.188219181844    -2.456714438681    -3.602693059586
C      2.320805580251    -1.469068330277    -3.769391648773
H      2.438475118791    -2.309830298457    -4.476565352375
H      2.470478783287    -0.512599871770    -4.295183217487
H      3.025383178814    -1.604563349149    -2.929583659096
N     -3.568936269935    -2.675159377535     1.338670100539
C     -3.569299887888    -3.244956433260     2.584280419824
C     -2.842488667570    -2.661450105682     3.608829996972
C     -2.130460584312    -1.497678530518     3.386561068598
C     -2.171326220409    -0.944515720612     2.132390615331
C     -2.915480454656    -1.601405606786     1.135846321797
H     -4.126523111945    -4.157630342396     2.760345774541
H     -2.834459203919    -3.120056895558     4.583934768899
H     -1.554821099013    -1.032546509043     4.182613051022
H     -1.644174899514    -0.043415657810     1.889486025725
O     -2.911244466801    -1.007738615037    -0.105684230682
H     -3.574394876330    -1.461002710499    -0.682434680450

