# STO-3G

title

0 1
C     -0.935957459510     0.534517394397     2.715747541767
C     -0.069783380885    -0.358887863569     3.385804071433
C     -0.452721382561    -0.903151974458     4.629456875407
C     -1.689947999825    -0.552415740216     5.204135428871
C     -2.549842921486     0.346005324475     4.539050463504
C     -2.172591747482     0.889605783413     3.296995568020
H     -0.625253869596     0.971602862758     1.770260985282
H      0.887388332013    -0.601267068072     2.932754345904
H      0.214123821321    -1.589037931698     5.146146696283
H     -1.981417415544    -0.971649470413     6.164384696549
H     -3.502388302054     0.621323021504     4.985122190978
H     -2.829207438169     1.592630853156     2.787479589493
C     -2.491580989894     0.980649011083    -0.791638431361
H     -3.030726441008     0.901567919799     0.149978316954
H     -2.615477266617     0.153657878692    -1.487710402210
C     -1.674435330341     2.013834076095    -1.105580348518
H     -1.134931175365     1.992287352020    -2.040896609297
C     -1.422836063526     3.184702397208    -0.250815161495
O     -2.023921467803     3.303137723090     0.850542148241
O     -0.458933921790     4.122404771477    -0.662117611814
C     -0.191663998336     5.188821023233     0.259907196441
H      0.582157328819     5.862232357991    -0.167392784287
H     -1.110396496897     5.789881769665     0.447927982048
H      0.191333637227     4.789047515233     1.226929459406
Pd     0.148128342266    -0.568268972259    -0.735139820096
C      2.703789290191     0.362074644931     0.155537278418
O      1.562648555024    -0.188343607196     0.655888773319
O      3.721959213057     0.532499341158     0.845865031207
C      2.651199650104     0.798090055133    -1.360144223963
H      3.526627378332     0.354771760185    -1.856059384696
C      2.713026430434     2.305594130426    -1.490266863637
H      2.753896098888     2.597736279508    -2.557242549131
H      1.811369067383     2.755123339635    -1.025508641104
H      3.618558780365     2.695978197111    -0.979976503469
N      1.395793544811     0.330238268876    -1.923138817644
C      0.841843894381     0.104925411741    -3.095984908872
O     -0.324875832810    -0.478133579971    -3.092222738423
C      1.497838609304     0.490268227855    -4.353963004470
H      1.589895886646     1.588047854375    -4.372260057254
H      2.487193913377     0.005018171523    -4.387515157807
H      0.870783459738     0.147586062255    -5.197130169889
N     -3.374261470961    -2.302976521828     0.911322856373
C     -4.501000159405    -2.934742666010     0.458665687077
C     -4.539406685972    -3.429692998190    -0.834932940713
C     -3.444611068840    -3.296959032544    -1.667255103810
C     -2.328373935108    -2.666273013700    -1.176647639079
C     -2.363786505593    -2.187400161575     0.149678204729
H     -5.361027581599    -3.037383430774     1.110134621709
H     -5.430764683905    -3.921495854645    -1.188214452851
H     -3.466900719921    -3.681064702722    -2.683772096683
H     -1.449221703259    -2.529638082520    -1.773958962587
O     -1.217801661582    -1.561926470421     0.562128270710
H     -1.269499133522    -1.199687794589     1.483829429740

