# STO-3G

title

0 1
C     -0.667399006608     0.509626386919     2.629590939000
C      0.370664377337    -0.130389157681     3.341852974022
C      0.132261668662    -0.623879824610     4.639343862155
C     -1.140404601444    -0.472120168335     5.226946622082
C     -2.177069878922     0.167253555459     4.517415214762
C     -1.941709629236     0.658762068980     3.218762900404
H     -0.446232534884     0.923764814244     1.650922055478
H      1.345868165094    -0.224565579452     2.872612937208
H      0.931374886692    -1.115936209768     5.188867964733
H     -1.323305334936    -0.850691651025     6.230441449474
H     -3.159367261731     0.278461808996     4.970415266106
H     -2.745354767613     1.139417316782     2.666037549321
C     -2.154823609290     1.379764975144    -1.105228184688
H     -3.238481885877     1.372217263343    -1.021315039159
H     -1.724257149143     0.629355614226    -1.767832402528
C     -1.358957996869     2.227481439082    -0.414205740777
H     -0.284371441090     2.147689281187    -0.503747514326
C     -1.836431156928     3.254663786840     0.526386863691
O     -3.069286726978     3.370294175074     0.765432524774
O     -0.885549082991     4.045749892031     1.192492555276
C     -1.394697027901     4.905508687841     2.221247029896
H     -0.553510619301     5.471158539931     2.676721513670
H     -2.122511363411     5.637317759284     1.803236154510
H     -1.885358133965     4.309866584602     3.024687790182
Pd     0.295804313773    -0.812064551815    -1.047547387262
C      2.591852615775     0.692401175829    -0.251496351145
O      1.417541407133     0.230481776097     0.269776375008
O      3.484326634425     1.185724835057     0.455739766176
C      2.742483129557     0.584378598634    -1.819379755498
H      3.708006817511     0.097850992455    -2.018609016593
C      2.730512777447     1.955490076976    -2.462330311593
H      2.935223332439     1.870319247821    -3.547218233303
H      1.737221680020     2.427557161392    -2.314548667667
H      3.511773935287     2.598201252966    -2.004267852327
N      1.618286122691    -0.181353525545    -2.324592051236
C      1.209230526736    -0.810011711567    -3.404070755453
O      0.100821774823    -1.493724536284    -3.286808449292
C      1.951976605453    -0.765810565892    -4.670656623040
H      1.951031633738     0.274332308816    -5.034035686517
H      2.977613523815    -1.121838929900    -4.478547366479
H      1.444303558508    -1.423885703218    -5.399200500218
N     -3.471702638932    -1.485909753924     0.684182449457
C     -4.730213326108    -1.806642446777     0.251632583677
C     -4.900045033001    -2.409869813374    -0.984004713726
C     -3.806096338908    -2.699433993708    -1.776500510235
C     -2.559008338650    -2.370479806643    -1.306976013435
C     -2.464732932189    -1.755165157160    -0.041784398792
H     -5.588713405674    -1.579408912271     0.872862486040
H     -5.893147803444    -2.656406646710    -1.321762499864
H     -3.929285522449    -3.177524484348    -2.744797480889
H     -1.671796947018    -2.583224226136    -1.868656072331
O     -1.186581198469    -1.444478754070     0.350899658484
H     -1.152291926886    -1.003673950350     1.240491272787

