# STO-3G

title

0 1
C     -0.359334255263     0.485212857446     2.837129949899
C      0.873039871557     0.011857156575     3.339432556374
C      0.916164757251    -0.646658067477     4.582956021508
C     -0.268876188364    -0.830526193025     5.325732135861
C     -1.498793348543    -0.359290705847     4.825472743666
C     -1.546122925420     0.301279313372     3.581060722365
H     -0.361679276691     1.035995055862     1.900399022676
H      1.772433830329     0.167110917230     2.751469533652
H      1.864462683026    -1.010200253044     4.971706703303
H     -0.232846759111    -1.338872117155     6.286949274420
H     -2.411501191027    -0.504751014648     5.398271286960
H     -2.491461696058     0.654846316733     3.180661819774
C     -1.536647069211     1.703986150205    -1.683264618591
H     -2.492087318624     1.653549452245    -2.201704132920
H     -0.692625977755     1.255235961747    -2.200131905562
C     -1.390436893535     2.228350362937    -0.444624767872
H     -0.421141848968     2.195128427136     0.034608347336
C     -2.483402332319     2.801216643155     0.358980591500
O     -3.637484092925     2.929913080245    -0.136172644316
O     -2.201415082769     3.219161525251     1.670898412147
C     -3.317922947163     3.700494535468     2.430663312251
H     -2.972496011264     3.987830171247     3.447200079397
H     -3.767622338884     4.597559235441     1.947951607876
H     -4.092747062014     2.907861768646     2.537568770885
Pd     0.343220035859    -0.814088886013    -0.951403306210
C      2.612027198122     0.823204488737    -0.357241454234
O      1.422670899023     0.454065826567     0.200113086206
O      3.479952287539     1.441490126299     0.280209551206
C      2.816084320543     0.439319936659    -1.874848991057
H      3.789507959896    -0.065527697250    -1.953982779956
C      2.820152849673     1.675412881690    -2.749568980428
H      3.037185823188     1.399825708252    -3.799901956517
H      1.828347570841     2.170606521329    -2.698960250279
H      3.599569994559     2.385570138138    -2.401122404765
N      1.712323211603    -0.414063521852    -2.273388218912
C      1.348997805747    -1.242062562490    -3.229035791491
O      0.237011164471    -1.899546085003    -3.030208392747
C      2.147290871212    -1.435859488433    -4.447013056181
H      2.167886305086    -0.483775796583    -5.000979922048
H      3.161548079253    -1.745541203604    -4.145397777402
H      1.669287443417    -2.222556216119    -5.058830744263
N     -3.334777693615    -0.369907220633     0.648111908939
C     -4.588341810272    -0.196764340272     0.123064690784
C     -4.916769196045    -0.787814264643    -1.086545948263
C     -3.986946875890    -1.547587732535    -1.768948676795
C     -2.740122966826    -1.697196504845    -1.215902196952
C     -2.481692251794    -1.072126107783     0.020543895572
H     -5.316009181318     0.407317475632     0.652368077257
H     -5.902389119998    -0.641088294171    -1.496165785782
H     -4.234810350958    -2.011288853059    -2.720058699513
H     -1.972667214860    -2.274986263199    -1.693776902303
O     -1.195892533252    -1.236460223956     0.478246843136
H     -1.046616284961    -0.838261105303     1.376288540070

