# STO-3G

title

0 1
C     -1.059238943511     0.158310981196     2.832117424862
C      0.249601257353     0.181495443033     3.363978104863
C      0.485164146899    -0.311147562378     4.662069502022
C     -0.581759922464    -0.822420188396     5.428880625672
C     -1.886808832983    -0.849331022510     4.897206791400
C     -2.127058372581    -0.358985514479     3.598718818548
H     -1.251293545994     0.597398641591     1.855937921456
H      1.059097087151     0.574402254782     2.757633069679
H      1.491645615218    -0.294956131167     5.073931227305
H     -0.397013120272    -1.199853521909     6.432690903579
H     -2.707824951536    -1.248318619758     5.488612866434
H     -3.125144733257    -0.390419721456     3.171781441096
C     -2.310861242244     1.424300159735    -1.081236416109
H     -3.309666084884     1.578408515628    -1.482736169328
H     -1.791644672022     0.534243765816    -1.439100937512
C     -1.713569396356     2.249137817334    -0.187487026344
H     -0.730316144416     1.973622401353     0.152531390978
C     -2.333210092461     3.486080161316     0.354962037354
O     -3.478801641256     3.809725040886    -0.048281392891
O     -1.682726380761     4.338954940429     1.271451379606
C     -0.371379352567     3.987057903536     1.736245635943
H     -0.020662038292     4.763088187862     2.450575619009
H     -0.383031068216     3.017897853694     2.282561542363
H      0.359257853934     3.955545851884     0.897377295665
Pd     0.330473489196    -0.760082510194    -0.933189843877
C      1.979918746912     1.457307669387    -0.185347159594
O      1.002655984828     0.660685214031     0.341173463559
O      2.564262881501     2.309112304560     0.503403143040
C      2.276084289313     1.273466384823    -1.722557130892
H      3.361644314135     1.142847274508    -1.836729729318
C      1.830129128811     2.493551800845    -2.501786577540
H      2.125578712937     2.396810305725    -3.564589915763
H      0.725966424820     2.594284906379    -2.438735869655
H      2.304695347190     3.407553677751    -2.086363509539
N      1.524268307098     0.123620187089    -2.184439963186
C      1.388792058358    -0.675548642483    -3.219147909020
O      0.526415697472    -1.649743714619    -3.080733116203
C      2.166740158369    -0.508428711567    -4.453657791036
H      1.881016895282     0.450099382303    -4.915397814363
H      3.236757490600    -0.521949061333    -4.188004658115
H      1.927572589234    -1.344864693361    -5.135492519246
N     -3.387800349774    -1.536368293006     0.580801721787
C     -4.632132564842    -1.713122692703     0.037004962581
C     -4.756504424540    -2.223278839047    -1.245070048425
C     -3.633942582417    -2.564928294497    -1.974116688514
C     -2.403242029952    -2.375666948142    -1.396435402124
C     -2.355639901094    -1.850721600406    -0.089311039083
H     -5.513778662865    -1.446315051126     0.608123111508
H     -5.738300626467    -2.357735477638    -1.668994142955
H     -3.722860362853    -2.973846584166    -2.977313728797
H     -1.495046124684    -2.639101236186    -1.903102010628
O     -1.083731689017    -1.664577141215     0.403488222681
H     -1.084733166831    -1.313772864722     1.332637590965

