# STO-3G

title

0 1
C     -1.211292598655    -2.081533984827    -0.686721435708
C     -2.582635123271    -2.410635132201    -0.714840503225
C     -3.061344557369    -3.366774848154    -1.632823478571
C     -2.169423596550    -3.993713463024    -2.525701056190
C     -0.799743211304    -3.662738170188    -2.499738201576
C     -0.318769282621    -2.707577234081    -1.582181290715
H     -0.834583247442    -1.337130663282     0.012007452624
H     -3.277691103601    -1.927191867254    -0.032266178945
H     -4.118491966751    -3.622169489104    -1.649902999736
H     -2.538216542043    -4.733450159217    -3.232903946165
H     -0.110640083588    -4.145055451595    -3.189471232980
H      0.731313109614    -2.431080539076    -1.555598368743
C     -0.794738507704     0.102810711989     2.543771927322
H     -0.356272733393     1.023613064793     2.921265805259
H     -0.124352388947    -0.753873011540     2.512314712089
C     -2.078139183081    -0.008683559948     2.127398629431
H     -2.440912431061    -0.957411796067     1.761938165910
C     -3.050304163646     1.095008257268     2.081994674443
O     -2.685717034563     2.265726045169     2.381192918987
O     -4.365983697021     0.818542869503     1.667613499075
C     -5.220124257229     1.960030637011     1.511606842637
H     -6.225172052738     1.626174590216     1.176347745797
H     -5.336698436442     2.502614914525     2.477211439219
H     -4.808718011403     2.655514258471     0.744235033471
Pd     1.556488142768     0.930055966146     0.600915507267
C      2.806963573915     1.452927023362     3.116652677575
O      1.802169626469     1.935839885665     2.327705578509
O      3.014197805790     1.874856189147     4.264484223064
C      3.701999269633     0.320582858736     2.476548949096
H      3.772098606146    -0.494938559078     3.210135331356
C      5.091053680560     0.836657940547     2.167044283892
H      5.725116895925     0.016163643392     1.777726586045
H      5.026428258001     1.639586347908     1.403495918362
H      5.559709669644     1.244658024182     3.087367303334
N      3.075937524088    -0.098672245825     1.236323785286
C      3.087358496521    -1.078379974871     0.363475454122
O      2.222154370016    -0.993574927768    -0.613427230110
C      3.995378759891    -2.226325156686     0.486884876722
H      5.030392528934    -1.857247795899     0.405871465137
H      3.816530904520    -2.699504004680     1.466500945463
H      3.777156321425    -2.937086233891    -0.330856654888
N     -2.283946391002     1.629572047137    -0.863029082771
C     -3.092567411372     1.103714528051    -1.834735271718
C     -2.529855827772     0.472434193200    -2.930920494209
C     -1.157220413020     0.361137589207    -3.044182417105
C     -0.376941762708     0.913444249758    -2.058045700194
C     -1.023365210460     1.544618320729    -0.977344957289
H     -4.169484889096     1.172694646781    -1.735977747991
H     -3.168972013448     0.036912771386    -3.680489845732
H     -0.707842367421    -0.159907782234    -3.885241371034
H      0.691616571251     0.843936863050    -2.078020585349
O     -0.175082089083     2.030105355309    -0.008722699991
H     -0.660656783001     2.456696105928     0.731308487408

