# STO-3G

title

0 1
C     -0.552806750573     0.404835553849     2.946550222713
C      0.250699003358    -0.676956557144     3.372000102114
C     -0.141660344617    -1.462636740345     4.475615764090
C     -1.333121552577    -1.161080482473     5.163086489669
C     -2.131398939762    -0.074189446543     4.750122346250
C     -1.741938429050     0.705654724105     3.645640090662
H     -0.213147407553     1.012082013244     2.112031859936
H      1.182659652598    -0.885509181213     2.851198300613
H      0.480306844298    -2.293945428132     4.799230187339
H     -1.635065425474    -1.763610928305     6.016848754040
H     -3.047081081126     0.162079917920     5.286885826185
H     -2.352312817925     1.550981628419     3.335405884677
C     -2.279044143531     1.116147201177    -1.376211507002
H     -1.825532095810     1.548865843757    -2.264044486319
H     -2.785397073721     0.164355530326    -1.520983398344
C     -2.213390093034     1.690015948716    -0.151825156913
H     -2.647590502532     1.184564953268     0.700467358927
C     -1.508112826623     2.947120852950     0.145145201508
O     -0.980924057112     3.611713377121    -0.789156891781
O     -1.462590426308     3.393416309907     1.476537422015
C     -0.545635363631     4.463883971048     1.741587577421
H     -0.577764225745     4.717178513696     2.822811127966
H      0.497404038495     4.159535905290     1.491508215459
H     -0.816370836436     5.373878488262     1.160061067486
Pd     0.266641358977    -0.428193872182    -0.962201061106
C      1.948551175957     1.786612099403    -0.270414208446
O      1.011718298855     0.975641951306     0.296826264511
O      2.562607660343     2.647820099233     0.382266461532
C      2.218226009984     1.568663094366    -1.813657477619
H      3.294942666170     1.371370641597    -1.920710114840
C      1.857420762455     2.801098499608    -2.615902673317
H      2.174276249843     2.680146005302    -3.669418688654
H      0.759811235528     2.960396499001    -2.578671595690
H      2.364916302717     3.693962719878    -2.194199809478
N      1.407351878953     0.451345187387    -2.263410902620
C      1.215264522170    -0.336361728900    -3.297737182653
O      0.354972053908    -1.308482599614    -3.129311704845
C      1.928102500245    -0.157832519993    -4.569832204145
H      1.612234311636     0.802500312181    -5.007875076417
H      3.010179421137    -0.165600551633    -4.358981462252
H      1.657970635972    -0.990600598264    -5.244164175765
N     -3.245557689272    -1.746446433591     0.834044769993
C     -4.440639150171    -2.280049316035     0.432237578604
C     -4.518081568052    -2.969169724899    -0.767466295289
C     -3.394188037246    -3.132400285434    -1.554696416758
C     -2.211244283850    -2.592247131042    -1.116209942974
C     -2.208931437670    -1.905329884932     0.114903240053
H     -5.323326565250    -2.151320811662     1.047742123509
H     -5.462353085320    -3.382912319730    -1.081315416793
H     -3.445140465820    -3.674505001455    -2.495403840987
H     -1.301004670790    -2.689050321389    -1.676297805400
O     -0.992565505477    -1.390581141733     0.479109662719
H     -0.992976365563    -0.984342534429     1.385205988806

