# STO-3G

title

0 1
C      1.740454347160     3.105956756780     1.240838292577
C      2.916164967752     3.832879504503     0.959765034220
C      3.264526137388     4.946254752453     1.750623337135
C      2.436341934909     5.335350984452     2.822374963016
C      1.261293780314     4.609223941201     3.102986455916
C      0.912266343094     3.494797109236     2.314487595181
H      1.454449753431     2.252545393609     0.630104372853
H      3.556841303529     3.541660630483     0.130437717035
H      4.173955775253     5.502756085614     1.535327398724
H      2.705717370770     6.193657959236     3.434025300623
H      0.621925448511     4.908444648414     3.930610152024
H      0.008483851378     2.925119582413     2.508453360967
C      1.957863025265    -0.053079779062    -1.187425350435
H      1.427313913704    -0.567762229238    -1.985451682666
H      1.739041127876    -0.398353940253    -0.179156025504
C      2.838638287230     0.954105572624    -1.396385703011
H      3.327897912947     1.419430610217    -0.554150971976
C      3.173058148729     1.523884971577    -2.711292829995
O      2.574713802523     1.113510353454    -3.743950955254
O      4.142443167740     2.541016672195    -2.778730477180
C      4.327102850812     3.137273510584    -4.069955831102
H      5.103872367118     3.928584221251    -4.003690894033
H      4.664315651229     2.378387786624    -4.812063778536
H      3.380194041165     3.605483620856    -4.424914053216
Pd    -1.034035655094     0.546120250265    -0.786365465540
C     -1.283135907451    -2.218131090512    -1.460884060910
O     -1.027350361616    -1.015704293175    -2.056170134303
O     -1.199000242618    -3.295128371412    -2.070535647723
C     -1.702454366323    -2.159328749085     0.060614444120
H     -1.086182242131    -2.893884308506     0.598109241446
C     -3.164564053682    -2.510601608563     0.234837221012
H     -3.428197219214    -2.524195604003     1.310589541071
H     -3.791329678119    -1.755221066614    -0.283263702292
H     -3.369445318521    -3.513204444941    -0.196368755696
N     -1.492137028773    -0.802994336361     0.533119398122
C     -1.366528088669    -0.115027188299     1.643924550567
O     -1.102775689162     1.157739849051     1.511335180717
C     -1.482955404279    -0.740504933204     2.967994770664
H     -2.506603930290    -1.134245913210     3.074090889154
H     -0.736331989540    -1.549232033233     3.030988098512
H     -1.286368267071     0.027408080731     3.738284354670
N      1.001291125204     3.759300150847    -2.472169138514
C      1.394093243450     5.012775751377    -2.085931202402
C      0.685116987261     5.684565945116    -1.104751695107
C     -0.406905545537     5.090323498487    -0.501934655703
C     -0.780753766443     3.837958025436    -0.924179290504
C     -0.015269178804     3.223820684058    -1.934631941791
H      2.264593034713     5.469682188860    -2.541562942918
H      1.012584765467     6.659283557361    -0.784552691313
H     -0.948627309054     5.596504881717     0.292405418385
H     -1.606835573181     3.316566832037    -0.486475121161
O     -0.430292513338     1.956580935428    -2.272944710347
H      0.111044336667     1.566230527790    -2.994113748501

