# STO-3G

title

0 1
C      0.198900491852     1.588018312807    -1.214528980864
C      0.651410565239     1.942961146783    -2.499709313759
C      1.545588071064     3.019932001119    -2.660811995078
C      1.986933907808     3.743231098948    -1.534698258630
C      1.532941381503     3.387145119149    -0.248735370698
C      0.638286005366     2.310523335852    -0.086338865047
H     -0.484452001634     0.750583938647    -1.083788339887
H      0.321534100332     1.383686447338    -3.373533010038
H      1.892948888627     3.289770908194    -3.655598188127
H      2.674075356516     4.577133433961    -1.658713577338
H      1.868410048340     3.943495946494     0.623169680992
H      0.290167493304     2.024843481502     0.903197693027
C     -0.910593701164    -1.688133401909    -2.628972067707
H     -0.962922667270    -0.651532056529    -2.956832414632
H     -1.769555169174    -2.049695285209    -2.068976615246
C      0.168834597986    -2.472659473483    -2.884996508264
H      0.185255363167    -3.496559382759    -2.531002802022
C      1.359588750402    -2.050773921183    -3.644858963227
O      1.371129271466    -0.930747168870    -4.224193964315
O      2.405854546522    -2.973394991020    -3.817509970077
C      3.554196377063    -2.487363784050    -4.525980598053
H      4.316743420838    -3.293070931477    -4.588054148447
H      3.281427933120    -2.184882787531    -5.562541481438
H      4.006140353061    -1.619623871264    -3.993630542670
Pd    -1.422355588621    -1.051986164139     0.825579757356
C     -2.118791503630     1.043416185369     2.649259693921
O     -1.016695365308     0.409958676728     2.155151981300
O     -2.037075875351     2.032758498541     3.394177628792
C     -3.512363820048     0.436315785675     2.225664389964
H     -4.122302541994     1.261468461967     1.831348000371
C     -4.217739091952    -0.187749137363     3.410847980105
H     -5.221858982003    -0.546690557812     3.111570655803
H     -3.622207530173    -1.045314202850     3.787171166688
H     -4.334069509603     0.561034345796     4.222550614236
N     -3.264797457923    -0.594451480314     1.235595404588
C     -3.883558983916    -1.294991467555     0.314096323389
O     -3.129780519280    -2.072988725901    -0.422786700262
C     -5.332755557153    -1.199319923635     0.095570038972
H     -5.842143502043    -1.553310367544     1.006274896659
H     -5.578176313760    -0.145014226286    -0.114199511162
H     -5.602303310849    -1.838135831262    -0.765118910665
N      2.559021559340    -1.057210979249    -0.711652104805
C      3.770401423048    -0.439876012022    -0.549776597961
C      4.102240699343     0.119357459351     0.673935528696
C      3.212756187135     0.065716292361     1.730413388709
C      2.009456559701    -0.563916853932     1.534550890169
C      1.740041997832    -1.095899806481     0.259991321764
H      4.466420630965    -0.393299563250    -1.378953411981
H      5.052531419196     0.612054861139     0.792346562790
H      3.457554511520     0.513934169750     2.689565291709
H      1.266744913219    -0.623856561073     2.303608577617
O      0.499482834882    -1.669395778657     0.100010965427
H      0.368267704693    -1.922500079303    -0.853786407805

