# STO-3G

title

0 1
C     -2.912703056520    -0.694556449533    -0.206992100384
C     -3.934389340690    -0.835586097487    -1.168317114538
C     -5.065685035272    -1.628078160665    -0.889287098197
C     -5.178813737822    -2.280644009130     0.354473858860
C     -4.157677119097    -2.141723540357     1.315911919781
C     -3.024836714233    -1.351005940887     1.037780865606
H     -2.044198612588    -0.074623687122    -0.423214853358
H     -3.849426180836    -0.339334220958    -2.133020378241
H     -5.847591735317    -1.737512197772    -1.637609843673
H     -6.051332309660    -2.893813997258     0.569028351364
H     -4.242049922309    -2.647199433028     2.275414040984
H     -2.233974075932    -1.230711013148     1.772553974657
C     -1.592600697066     1.927639797900    -2.277283237813
H     -2.658477152423     1.729726651953    -2.360706067388
H     -1.313153084892     2.752894568137    -1.633056941449
C     -0.635454585633     1.210313271531    -2.906561632539
H      0.399195815296     1.469744430656    -2.739349830236
C     -0.882274786739     0.077146400403    -3.811995899025
O     -2.063307464413    -0.260988792003    -4.096469718229
O      0.221330875175    -0.649005626348    -4.293958507676
C     -0.084291303423    -1.754382629757    -5.155604439743
H      0.860249200944    -2.245382328121    -5.474470539989
H     -0.708154332800    -2.509239955727    -4.624903683093
H     -0.620631717395    -1.407716315176    -6.068151393285
Pd     0.151954974410     1.663968341931     0.699419661670
C      2.517192431529     1.750904496763    -0.885070361757
O      1.400857046247     2.499280272836    -0.635984520990
O      3.455508738781     2.169611247353    -1.580016509278
C      2.538808483970     0.300276446103    -0.254705015730
H      3.487369412710     0.202331258450     0.292444885748
C      2.468201216453    -0.765162913458    -1.329194303532
H      2.568578167703    -1.772487159522    -0.879956391564
H      1.491284584613    -0.706147911257    -1.850283811550
H      3.284443718148    -0.619629845643    -2.067706643942
N      1.380744968369     0.163527628102     0.609985415066
C      0.883111435043    -0.590774438292     1.563405310055
O     -0.232385531366    -0.167945496894     2.103054687497
C      1.517846331392    -1.832697890025     2.025021719004
H      0.820911997166    -2.661359903596     1.812745506845
H      2.474343559954    -1.979987658049     1.499775292765
H      1.687045313051    -1.742621576268     3.112206120908
N     -3.230282687241     4.038600567832     0.075906051959
C     -4.586998167681     3.853226376794     0.043143669624
C     -5.151921553795     2.788851419262     0.726419929115
C     -4.356760143464     1.922229450810     1.452885054951
C     -3.003627234871     2.155899202145     1.483521568078
C     -2.503722687292     3.246785225563     0.749083741429
H     -5.211176356499     4.529098181083    -0.529704319276
H     -6.217023582215     2.632151165948     0.681723090306
H     -4.789553626733     1.076452283922     1.981483899836
H     -2.333132207640     1.522021724065     2.030793938647
O     -1.132952081291     3.377236766978     0.779441914439
H     -0.824904700263     4.143931617992     0.251835862906

