# STO-3G

title

0 1
C     -0.800828578965    -0.099673985103     3.339232391223
C      0.460929646850    -0.562762568227     3.774309695613
C      0.542838449566    -1.589281132302     4.733362661974
C     -0.636536210325    -2.157357750884     5.260318549663
C     -1.896104535645    -1.700160610196     4.827365430186
C     -1.979752995451    -0.669062461181     3.868989384002
H     -0.831250721216     0.723723240149     2.629718111514
H      1.356066000388    -0.109301948630     3.358656363119
H      1.514605424167    -1.943039810769     5.069854081584
H     -0.572371529508    -2.951427282799     6.001154703574
H     -2.804386555868    -2.141184444143     5.230646416547
H     -2.953581065931    -0.324134542693     3.531496894590
C     -2.656710655317     1.891037656555     1.381584756072
H     -2.966631264548     0.889692978841     1.090883887750
H     -2.814414443183     2.153041528474     2.423362166581
C     -2.092545232986     2.765739632518     0.519853957464
H     -1.795307939816     3.749266929072     0.852421643555
C     -1.803205128980     2.473201830023    -0.891912833531
O     -1.854839581111     1.283873304101    -1.309728349459
O     -1.402165784967     3.525184065127    -1.734532583708
C     -1.188320603546     3.175578275863    -3.109595009682
H     -0.881471013355     4.080164031603    -3.676907207092
H     -0.382063677753     2.414276047907    -3.204073992952
H     -2.122901601369     2.777558632285    -3.566182617277
Pd     0.101331440263    -0.003317032074    -0.625286972510
C      1.921686743328     1.799042542045     0.652893862415
O      0.790146472120     1.093319120452     0.929356092396
O      2.560692251011     2.395670509355     1.535893656863
C      2.373152258979     1.825501777332    -0.857069202009
H      3.420261696808     1.489534985228    -0.884906683026
C      2.284668843132     3.223504765992    -1.429648548451
H      2.624172992614     3.227295825965    -2.483713207417
H      1.234495847356     3.576195266489    -1.384752898334
H      2.924401827108     3.915873873124    -0.843195823182
N      1.490857649984     0.952588703318    -1.610448083053
C      1.511157190840     0.231926054763    -2.713933551090
O      0.566692568973    -0.653626707591    -2.859594730735
C      2.551086876184     0.410935568660    -3.737779874281
H      2.475617069776     1.438896704486    -4.126770326873
H      3.530832696649     0.232642574165    -3.265366871010
H      2.375013441306    -0.319633695089    -4.548262773486
N     -3.556404236863    -1.529747893396     0.675246402215
C     -4.728946758168    -1.945370116390     0.102998248873
C     -4.741627719885    -2.373128367714    -1.214333860176
C     -3.575624272300    -2.383792900399    -1.955950421994
C     -2.416565906618    -1.974134842703    -1.348493553300
C     -2.481160627953    -1.544311452273    -0.007440630431
H     -5.644784873218    -1.934331490885     0.682149034109
H     -5.668360699734    -2.692334263714    -1.660892595693
H     -3.575805189883    -2.709337462028    -2.992666363243
H     -1.480132523824    -1.945740181501    -1.870646778088
O     -1.279940806516    -1.154234705189     0.526041660779
H     -1.302582822040    -0.960006007241     1.498591969813

