# STO-3G

title

0 1
C      2.630981457311    -2.437050604583     0.547691802920
C      3.507993252852    -1.995090452724    -0.462854600496
C      4.499943946256    -2.859938159065    -0.966434285931
C      4.615667553045    -4.169304186887    -0.457778926779
C      3.738901687056    -4.612294475354     0.553345945326
C      2.746861697598    -3.746654689712     1.055112106486
H      1.873468125392    -1.769270842181     0.944710996328
H      3.422069469454    -0.979988918785    -0.847401034547
H      5.177035006922    -2.516565427866    -1.745440288926
H      5.382206132240    -4.837198920350    -0.844626642046
H      3.828233604986    -5.622316136615     0.947018210085
H      2.062026066193    -4.082396988705     1.830363572672
C      1.565324227094    -0.155761581208     2.992591885534
H      0.720418399891    -0.496919503435     2.402403171114
H      1.635818620209    -0.575192055867     3.992464419767
C      2.471909407960     0.724974079939     2.513867736656
H      3.311282563334     1.026364013891     3.124702500525
C      2.437132077481     1.316653392862     1.165476384671
O      1.553641489949     0.938253114642     0.335281853688
O      3.545717246396     2.065579028363     0.738855200946
C      3.381974479694     2.777191299448    -0.494327544454
H      4.306440457253     3.357262301821    -0.705253520005
H      3.210831936106     2.076029093938    -1.340945462405
H      2.536010078364     3.498778763424    -0.419636847972
Pd    -0.621444700877     0.251022906769     0.183804768782
C      1.536798623481     4.641772231272     2.972416750163
O      1.200715832624     3.771351502049     2.226847356450
O      1.869424608348     5.514040423129     3.713924071546
C     -0.119808104925    -0.931386532330    -1.508476043358
H      0.938386706246    -1.108875838248    -1.704197931112
C     -0.976879664995    -0.478070407303    -2.645378570632
H     -1.120311956110    -1.324174421068    -3.347777439890
H     -1.969339168742    -0.154811612228    -2.269733495530
H     -0.484026017755     0.362767215119    -3.173545875471
N     -0.817968052527    -1.637680983979    -0.571080488410
C     -0.691162354040    -2.719272359188     0.188794396280
O     -0.886006839072    -2.751818361099     1.448720887036
C     -0.405014998675    -3.979237617355    -0.516539544118
H     -1.211474987991    -4.148032109301    -1.250149971368
H      0.570135050289    -3.880006135813    -1.022519581883
H     -0.371991125309    -4.805960949745     0.216352334700
N     -1.392171161796     1.058314230528     2.026211740287
C     -1.499351584603     2.419387572133     2.140012246874
C     -2.058906678746     2.978650586901     3.269080905945
C     -2.487572368778     2.182418099064     4.305177361234
C     -2.360822271893     0.825172179214     4.174310523650
C     -1.791158835704     0.285436889379     2.999675408123
H     -1.162162684578     3.055650914402     1.330233467510
H     -2.121761345352     4.051896402437     3.350183352348
H     -2.909843461238     2.619860881040     5.205921378629
H     -2.665770473034     0.151568523437     4.950117720664
O     -1.699733661348    -1.023196749786     3.034518983931
H     -1.314646732594    -1.628657384212     2.261078587846

