# STO-3G

title

0 1
C      0.526984467688     3.345026240278    -1.334602391952
C      1.560537561397     4.034481613512    -0.665953397319
C      1.733199089757     5.414321034330    -0.900308846204
C      0.904375336426     6.087752103730    -1.819919056871
C     -0.099928223436     5.383639552008    -2.512658673322
C     -0.280438632110     4.002222802754    -2.289139142624
H     -3.393979218247    -2.477206019594     2.147250142086
H      2.201786045467     3.519868975526     0.046627242370
H      2.512611636289     5.955576868405    -0.368466167644
H      1.048189475103     7.149854515839    -2.003613866407
H     -0.730818049859     5.898783855262    -3.233706841448
H     -1.040939809544     3.458650122113    -2.848553184722
C      1.590158897509     0.490404007136     2.013329782427
H      1.698686020243     1.037306792092     1.078798446862
H      2.222339889474    -0.387252940177     2.111931308979
C      0.690543203242     0.836386963606     2.960653915620
H      0.590646779096     0.252908061814     3.864992307521
C     -0.220572398576     1.984709568603     2.852555903189
O     -0.950435492738     2.279089343068     3.833326491537
O     -0.364952721212     2.647394416951     1.613318710485
C     -1.170783884797     3.837882971400     1.649613498140
H     -1.209935646289     4.306371724417     0.642658507575
H     -2.213845274302     3.606508723427     1.966412449228
H     -0.736731524750     4.586336326182     2.351782240642
Pd    -0.064444001390     1.563379546454    -0.760175618865
C     -2.371262239260    -3.989798495471     1.654018686833
O     -3.541060234727    -3.490310381183     2.152207112036
O     -2.150327630885    -5.188717807680     1.443132589428
C     -1.341010396076    -2.837983522663     1.397280840005
H     -0.892181665627    -2.988958244261     0.406191852244
C     -0.249938659308    -2.851015006815     2.444702405652
H      0.492156132067    -2.066004342814     2.218026524261
H     -0.698739679735    -2.654421902636     3.440891328198
H      0.258735483877    -3.837374690161     2.454110362309
N     -2.110790572378    -1.594739903762     1.546474216943
C     -1.905053818421    -0.515059505410     0.887353244292
O     -0.907757479376    -0.263202538689     0.031609255461
C     -2.894510915030     0.550450012716     1.082236424547
H     -3.879915611695     0.137051339018     0.800648615237
H     -2.903664425092     0.802699948616     2.157937088355
H     -2.648431489941     1.428103419329     0.464802697903
N      1.522084273223     0.564195060023    -1.706590873688
C      2.285667920908     1.168470844077    -2.674708796960
C      3.389937185990     0.526738751101    -3.191636071953
C      3.739833221865    -0.729984512295    -2.758315676860
C      2.956008834659    -1.329637827084    -1.811918830209
C      1.821578503669    -0.658941854300    -1.304059643772
H      2.030888506216     2.150649020691    -3.049147567984
H      3.982347210617     1.016769092934    -3.947766094209
H      4.609778875369    -1.238701556107    -3.165936467520
H      3.164664462724    -2.317882310787    -1.450540877912
O      1.147233706788    -1.347106195051    -0.434632013814
H      0.130890013698    -0.937255846319    -0.121340543470

