# STO-3G

title

0 1
C      0.958928308541     4.127389745566    -0.366437866719
C      1.448965167511     5.406882999197    -0.031424000340
C      1.001351953341     6.548416644105    -0.723688680088
C      0.062044960695     6.420336560918    -1.763722326744
C     -0.425327420823     5.143774186706    -2.108913200387
C      0.022469778788     4.005544619758    -1.416709758455
H     -2.439079233039    -0.285713083410     0.753979185003
H      2.175309523622     5.514984605945     0.772297158737
H      1.385233448277     7.529152169568    -0.453055164857
H     -0.282140463502     7.301022820575    -2.300386601938
H     -1.146850905551     5.038195996989    -2.915506923034
H     -0.350855091960     3.020090997713    -1.692594343044
C      1.424156203046     2.917149168478     0.412945739230
H      2.036318167994     2.227214801752    -0.392278680939
H      2.271483271621     3.133650397732     1.072490572756
C      0.362624239043     2.064297041425     1.047554683427
H     -0.663156445958     2.363790912778     0.880442325862
C      0.584536474660     1.429210116967     2.357976552027
O      1.732919888475     0.988763527309     2.622886043681
O     -0.502598883491     1.230806262636     3.220533546628
C     -0.230728844766     0.470911201991     4.407448453358
H     -1.161391956133     0.378628609812     5.009690049881
H      0.105856976351    -0.559086122347     4.149491274771
H      0.541615169776     0.970392524814     5.034530323862
Pd     0.981157093413     0.797700035277    -0.478935515148
C     -0.305761908842    -1.535245944253     0.690596875833
O      0.854445565729    -2.006645820948     0.932757198761
O     -0.552985572534    -0.570327856379    -0.161058857895
C     -1.533948169573    -2.028028824367     1.475614523327
H     -1.223497180907    -2.323903760523     2.481755163025
C     -2.225594238914    -3.194917915875     0.805810407612
H     -3.079586002576    -3.523070961151     1.434106924112
H     -2.614339399400    -2.873681914673    -0.182208907760
H     -1.518623610161    -4.040500894492     0.678938427372
N     -2.473652254299    -0.910167782750     1.555957019116
C     -3.064071861989    -0.558249071394     2.726869917701
O     -2.968698308406    -1.196480989186     3.802861829095
C     -3.879895818102     0.672707897037     2.672011187904
H     -4.661411495523     0.525484825984     1.908320771444
H     -4.329536681678     0.838594872222     3.665927587268
H     -3.214783668148     1.511045346376     2.403610482926
N      2.006077572230    -0.203632463172    -2.051497940877
C      2.027495312208     0.343441635077    -3.306533918745
C      2.876743990187    -0.162461959071    -4.267639298625
C      3.702689967114    -1.227077157426    -3.981222229298
C      3.650665850370    -1.768407586677    -2.724279782621
C      2.762325541392    -1.230579017845    -1.767838640733
H      1.387052273648     1.186965735470    -3.537893414051
H      2.892185140482     0.280176505429    -5.250595335169
H      4.374496256083    -1.630507530440    -4.734477548843
H      4.258475196307    -2.604807413565    -2.439560226668
O      2.788821553496    -1.848062583586    -0.610181580237
H      1.983870376273    -1.778192106375     0.075103431055

