# STO-3G

title

0 1
C      0.727959166296     4.099061736227     0.017971064429
C      1.217149400873     5.414607918897     0.160258374184
C      0.549306127285     6.498669883409    -0.440867631307
C     -0.615529961501     6.275614326875    -1.197862932594
C     -1.106223218162     4.962883737047    -1.349362786103
C     -0.438579866695     3.882641192088    -0.748798202014
H     -3.280112364591    -1.228556761209     0.147508580321
H      2.116345637333     5.595497844306     0.747309674113
H      0.935801130046     7.507737070491    -0.317742211714
H     -1.132597669353     7.110790721256    -1.664401640425
H     -2.004569938998     4.784276548441    -1.935602435795
H     -0.817993454469     2.870394174565    -0.874121682172
C      1.452108067039     2.957051722013     0.692238603576
H      2.066102382480     2.341916189945    -0.205246576636
H      2.355843515741     3.284515242865     1.218667908108
C      0.633957367555     1.950897219654     1.427499940842
H     -0.433618916107     2.087365292484     1.507113929020
C      1.221041944763     1.172846302776     2.536483693554
O      2.452759695855     0.914523516961     2.480859985838
O      0.376966540568     0.500835492670     3.432654870716
C      1.017053510519    -0.395586335575     4.351256495976
H      0.248668404029    -0.855759781505     5.009041772605
H      1.539636693220    -1.214423581866     3.805349635771
H      1.745691815102     0.147859026027     4.994034555497
Pd     1.105698638229     0.869003876162    -0.306486064755
C     -0.455112914996    -1.286080943500     0.831918766684
O      0.642930070415    -1.824368406764     1.224596909314
O     -0.533312342506    -0.440434722435    -0.151517470673
C     -1.776992528002    -1.554732741933     1.597209182665
H     -1.620697243034    -1.176373798618     2.613847795819
C     -2.136262346941    -3.022319636550     1.671141827397
H     -3.071321604364    -3.143229650968     2.256277371483
H     -2.300225480962    -3.416810931080     0.648042503017
H     -1.321575623901    -3.592468678500     2.163587838607
N     -2.890266570136    -0.830092819856     0.992421597567
C     -3.033730940277     0.507214003552     1.209934623051
O     -2.319581289681     1.185038559190     1.985752870497
C     -4.124979753123     1.191422737830     0.480570486771
H     -4.710262882377     0.468587281018    -0.112679104773
H     -4.770404116459     1.670471269505     1.235191565809
H     -3.667942439140     1.953386811458    -0.172831960555
N      2.045189602464    -0.173971808571    -1.903320717432
C      2.207311356351     0.380901057978    -3.143979872056
C      2.984133412995    -0.254397096007    -4.089539342976
C      3.594714889910    -1.454863031725    -3.800821275998
C      3.405496201934    -1.996665432011    -2.557218812267
C      2.598656474305    -1.321213648947    -1.615042431884
H      1.733917010538     1.327881486660    -3.377022485383
H      3.110753173486     0.193107891831    -5.062055262532
H      4.207631739354    -1.961280848255    -4.541913009047
H      3.845698985115    -2.931857046950    -2.271986501881
O      2.487887226290    -1.958087049015    -0.469205177285
H      1.748046123667    -1.752076070633     0.256891440982

