# STO-3G

title

0 1
C      0.452829623677     3.504138844125     0.279471487978
C      0.918005863999     4.117995519181    -0.904710671652
C      0.145784734759     5.087572840488    -1.566498904056
C     -1.108894467746     5.463066278789    -1.047228109054
C     -1.580701941065     4.852826547861     0.129562949240
C     -0.808613361759     3.877828535032     0.790274523712
H     -3.665326652214    -0.698820113975    -0.282212580381
H      1.880880375051     3.825642105711    -1.323287978410
H      0.516493221448     5.542290927563    -2.482214199633
H     -1.708933258820     6.214184442304    -1.555668677554
H     -2.549736298692     5.132035813484     0.537124588139
H     -1.203547728019     3.401204797398     1.681830210578
C      1.344592888299     2.524324315464     1.025532666352
H      2.014164499196     1.994129797767     0.153111824295
H      2.162275440456     3.043725686670     1.539426110472
C      0.711051653132     1.433828231474     1.827107072941
H     -0.364440605418     1.327207661649     1.772194435908
C      1.285021530583     0.969655061910     3.103813446816
O      0.596444569930     0.232876572432     3.853538445101
O      2.676072699928     1.083005788678     3.279421520388
C      3.194858226487     0.542748187685     4.503789111260
H      4.293727279743     0.703926431546     4.544732862879
H      2.737175212438     1.048007277767     5.385009530668
H      3.001569312027    -0.552739439738     4.568248392142
Pd     1.529575558603     0.268372044874     0.307097292399
C     -0.918027233377    -1.113669939291     0.272275792501
O     -1.077273036951    -0.563164272782    -0.882771379311
O      0.223924749821    -1.351940765233     0.838849904121
C     -2.213075287283    -1.399910439208     1.079699419441
H     -1.991285253004    -1.203149281985     2.131944002686
C     -2.702887913613    -2.822701945442     0.927847230256
H     -3.620221870751    -2.961366869545     1.536585599113
H     -2.947197812803    -3.019636084513    -0.136079427066
H     -1.924266151889    -3.534167023290     1.271537894638
N     -3.268175396581    -0.493659044934     0.627113670812
C     -3.256232525407     0.800549679177     1.045678465637
O     -2.451586331131     1.266736115884     1.890522151519
C     -4.256169352612     1.711307051067     0.448804114927
H     -4.826119794534     2.165236390603     1.275847503439
H     -3.699914450349     2.483088812588    -0.109150084975
H     -4.934944313679     1.159922083231    -0.225058658865
N      2.472207309294    -0.508718931103    -1.448805161911
C      3.790449448277    -0.878583633579    -1.426551868498
C      4.447663081910    -1.169245567911    -2.603693434038
C      3.784562846522    -1.104562762207    -3.809913566341
C      2.460981601258    -0.752882675933    -3.804207986851
C      1.818787839425    -0.473260367899    -2.578561299257
H      4.321902979889    -0.924064387966    -0.482961383603
H      5.487670431401    -1.451954035930    -2.577337365195
H      4.296371682473    -1.333251271936    -4.741155104606
H      1.881529581288    -0.697182347459    -4.704882297503
O      0.543902001522    -0.173441950641    -2.692307943848
H     -0.096430066960    -0.270281937028    -1.844973657136

