# STO-3G

title

0 1
C      0.339838744118     3.375423324759     0.365443214888
C     -0.086230422166     3.093886845178    -0.948074280380
C     -1.012808894832     3.934988544047    -1.594229441323
C     -1.523917980254     5.067682764803    -0.933760949450
C     -1.102033587704     5.353966831622     0.380048897657
C     -0.174073180055     4.515363355890     1.022454559188
H     -3.482085778701    -0.370780850176    -0.546429279374
H      0.299264784584     2.222932517253    -1.474528916735
H     -1.326101031988     3.703343911667    -2.609547853731
H     -2.236036563032     5.719629835145    -1.434440401403
H     -1.492680936761     6.225453081677     0.900424219422
H      0.139956501347     4.741121356001     2.039648034472
C      1.319976816059     2.481701746296     1.105502789305
H      2.034866511311     2.007868677971     0.262127113974
H      2.068871801105     3.059330749071     1.657720912898
C      0.717480774324     1.346966338821     1.888878483653
H     -0.357925425124     1.235562289369     1.840733885282
C      1.300800748332     0.886319860342     3.163340990394
O      0.647190072218     0.093093067487     3.885979047046
O      2.681717018966     1.070441135799     3.358153407746
C      3.215019986748     0.534570846153     4.578262882526
H      4.303003224612     0.753951773302     4.636063105853
H      2.720436184339     0.996512112604     5.463315383355
H      3.080649730283    -0.570797050269     4.619235030822
Pd     1.575479517804     0.233705923879     0.358696767972
C     -0.893278197525    -1.113635856088     0.130446528816
O     -0.973758128182    -0.563073646327    -1.036254417864
O      0.206540742185    -1.377144320295     0.761290749927
C     -2.246898047798    -1.346250071234     0.853000318140
H     -2.072061373889    -1.253563871020     1.927555360732
C     -2.854508761349    -2.697801004002     0.551960369178
H     -3.812346617013    -2.799286855034     1.102857705855
H     -3.058495000139    -2.778801486218    -0.535440032868
H     -2.163470925106    -3.506703097099     0.865779752928
N     -3.185877021498    -0.308700668948     0.421226836523
C     -3.134517645119     0.921538700010     1.005007490673
O     -2.400671171524     1.213804539640     1.980559136239
C     -3.993921215849     1.977319674460     0.429537899296
H     -4.637732045689     2.357322217500     1.239237334647
H     -3.324517929354     2.775017719681     0.064402481168
H     -4.608830033805     1.576964352742    -0.394932957660
N      2.591116703496    -0.477777833175    -1.391763025863
C      3.899589872808    -0.877130487953    -1.331066043833
C      4.609563875630    -1.099421820975    -2.492512376101
C      4.009667159102    -0.935073430615    -3.722272838667
C      2.693892829634    -0.556029729050    -3.756573142443
C      1.996646511927    -0.350595322489    -2.546722968487
H      4.382035229865    -0.999517776974    -0.368169604431
H      5.641726984209    -1.405474159155    -2.435305353034
H      4.563928953034    -1.108286682351    -4.641116111330
H      2.162042130818    -0.424024880666    -4.678301882462
O      0.733008930243    -0.013036647986    -2.694292898771
H      0.036941998733    -0.217800552132    -1.895397280476

