# STO-3G

title

0 1
C      0.850254743424     3.976626848623    -0.155654781636
C      1.303306560121     5.306000699832    -0.021139538967
C      0.723601004432     6.341233753269    -0.779412020100
C     -0.312837396219     6.051963971501    -1.686065292181
C     -0.763788651024     4.723879392001    -1.827974305326
C     -0.187526271683     3.688631832045    -1.071417006315
H     -3.153761179523     0.424424283873     0.873917324423
H      2.104118141561     5.537139724928     0.680069549077
H      1.078006216010     7.362703933355    -0.662011238757
H     -0.761885072492     6.848334511860    -2.274995419236
H     -1.562283412521     4.493287555567    -2.529288461967
H     -0.544077520985     2.667469113261    -1.193292060729
C      1.486202499121     2.888208278408     0.682594352327
H      2.257902062809     2.298856794575    -0.078334548772
H      2.248008223313     3.272774206715     1.368313445189
C      0.588036313377     1.852925704684     1.275040233251
H     -0.468284604544     1.941753964445     1.069881580515
C      0.903253579247     1.196644193829     2.553009057978
O      2.098595282946     0.857594325508     2.757505278057
O     -0.145546154364     0.716327591676     3.349030663812
C      0.225019002388    -0.169479336002     4.415269010000
H     -0.687748497417    -0.485537573624     4.966851656198
H      0.706459874548    -1.089967882723     4.014003892463
H      0.911895553784     0.332732481732     5.132879979177
Pd     1.496055062524     0.697771753953    -0.202338263320
C     -1.109243881465    -0.556077004997    -0.173727054231
O     -1.435577024720     0.514349589585    -0.756854242433
O      0.153254027675    -0.932508466155     0.022383826355
C     -2.182464338910    -1.402803832183     0.542985474143
H     -1.716412843496    -2.138945994750     1.200319869939
C     -3.140743155651    -2.081851289331    -0.408812956750
H     -3.891110159198    -2.654153156288     0.174830748099
H     -3.669677140083    -1.312083402246    -1.008730248608
H     -2.591382244366    -2.772510836816    -1.080343723812
N     -2.932845021682    -0.441431415785     1.357070328834
C     -2.994745442692    -0.563836411253     2.712670794721
O     -2.555952857875    -1.542952672398     3.362076533037
C     -3.645407717021     0.544396683611     3.446910751940
H     -4.475179581278     0.112589276654     4.029925536521
H     -2.886297611344     0.981345442185     4.115707147081
H     -4.026537779484     1.309174018199     2.747957187718
N      2.653659596537    -0.251064180286    -1.737565387747
C      3.537016972798     0.495999412286    -2.471110484868
C      4.361873899394    -0.113134872127    -3.393417845174
C      4.302920905078    -1.474891318213    -3.593838961778
C      3.404239422187    -2.199483098305    -2.856845191149
C      2.576641403110    -1.538779223465    -1.925293486011
H      3.591873655991     1.568141944095    -2.320769902616
H      5.055450682088     0.484063697853    -3.963533325981
H      4.949182050618    -1.960749909540    -4.320398076690
H      3.301378096730    -3.261032110036    -2.968750988068
O      1.740227449563    -2.338713120021    -1.290437931871
H      1.053484089918    -1.873080526130    -0.682308412998

