# STO-3G

title

0 1
C      0.837027330157     4.251887291949    -0.128481056440
C      1.296118879251     5.508268756438     0.320006901960
C      0.873540150827     6.691459258851    -0.314764296631
C     -0.006856466536     6.627967758810    -1.410952532034
C     -0.459638407148     5.375068362596    -1.870502504316
C     -0.038577206476     4.194400115301    -1.234911638250
H     -2.161139191450    -0.026766259834     0.483259658136
H      1.977717275476     5.565600722205     1.166989833052
H      1.231576691101     7.653837286969     0.042633754447
H     -0.330254648955     7.540823934319    -1.904830582721
H     -1.131200706473     5.319574361523    -2.723534026534
H     -0.379750508208     3.228365782360    -1.603342559736
C      1.267267212645     2.998966353633     0.596944099366
H      1.972445761751     2.369443104166    -0.202151673828
H      2.061205374609     3.186053457556     1.328691269648
C      0.182295206363     2.084091949896     1.079346105233
H     -0.836066902414     2.416619498714     0.954370413789
C      0.417031002026     1.223603280300     2.247443551318
O      1.480908789579     0.548040868183     2.258264229673
O     -0.549871735393     1.114784436429     3.254771547265
C     -0.283472809578     0.144980531153     4.278687835979
H     -1.130073909895     0.128932841945     5.000057065222
H     -0.198797963734    -0.877888601991     3.845219026943
H      0.647768120024     0.394685714443     4.834866918892
Pd     0.965207105901     0.935192098826    -0.476146360839
C     -0.481880841627    -1.625899024212    -0.218308549275
O      0.379299798047    -2.449531666623    -0.599844277017
O     -0.610039821401    -0.368000332732    -0.682275816692
C     -1.548782044888    -1.978757302223     0.857000304759
H     -1.033767654130    -2.358308873221     1.748123009761
C     -2.516645041765    -3.038933403274     0.374478687089
H     -3.219955778101    -3.300492182990     1.192235126872
H     -3.096534330850    -2.642526773052    -0.483601471971
H     -1.964996177228    -3.950894270959     0.065422776293
N     -2.303285046156    -0.765592508457     1.170906857399
C     -2.946510137035    -0.579672099977     2.347024911118
O     -2.964156530380    -1.398704120779     3.300470424032
C     -3.703790799545     0.686249112319     2.453870948179
H     -4.446122159557     0.703016049439     1.638717795734
H     -4.203873877235     0.711636723165     3.437166448697
H     -2.996206617591     1.525899971188     2.359625247042
N      2.190099840340    -0.193739434939    -1.804913072372
C      1.696278527241    -0.767976868797    -2.946449880304
C      2.536802066880    -1.503481630729    -3.760518381808
C      3.857837557999    -1.695936889031    -3.411295588281
C      4.308610356434    -1.139263093487    -2.240835624943
C      3.409056289966    -0.405764167703    -1.446116774948
H      0.660261902525    -0.615207322252    -3.226339086771
H      2.146563635062    -1.946196381000    -4.662220560668
H      4.519962271759    -2.285285964204    -4.040091350852
H      5.312558509568    -1.276527828248    -1.891891088430
O      3.921840602197     0.041232960402    -0.286495483025
H      3.200604736286     0.356120277339     0.317373486603

