# STO-3G

title

0 1
C      2.384482200313     3.070633279477     0.954509469339
C      3.228329639811     3.241253098875     2.074461739760
C      3.670126662682     4.523845759822     2.445787505494
C      3.275933688687     5.653737976052     1.701858618958
C      2.438386104583     5.490122233207     0.582679770156
C      1.999177733296     4.205242450827     0.211646066749
H     -2.762925930155    -1.988228042507     2.046420089049
H      3.536384342312     2.373972280947     2.655450016268
H      4.320094172493     4.641139988619     3.309920459677
H      3.620317948684     6.644480721738     1.988474356216
H      2.132782084725     6.355332004583    -0.000892840487
H      1.350038612376     4.085153163109    -0.655368200118
C      1.891749434456     1.674896272305     0.608663950556
H      1.723014716560     1.714747553915    -0.566906973175
H      2.676741034981     0.920064675276     0.710071037103
C      0.620292506419     1.167557776350     1.248471311774
H      0.704819396109     0.248177648136     1.813692635450
C     -0.404671704914     2.100948966123     1.750626233560
O     -1.064858906503     1.791079217028     2.775335758975
O     -0.886948042493     3.064686803982     0.846946871091
C     -1.912340462214     3.930384153695     1.353644894340
H     -2.198529532395     4.663953713376     0.569803550439
H     -2.820638648741     3.349116166654     1.634033152891
H     -1.547101040231     4.496816929315     2.240750790044
Pd     0.123169590800     0.771878165874    -0.721190270390
C     -0.583516907653    -1.879316165779    -0.018482326451
O      0.502436372074    -2.181058519981    -0.629442342747
O     -1.227267738772    -0.750807615653    -0.132373259204
C     -1.142175785137    -2.906123483466     0.995042722860
H     -0.277622940379    -3.468929536712     1.359808924396
C     -2.133785545161    -3.863700694909     0.370812687512
H     -2.469226410913    -4.595305901891     1.134845247602
H     -3.015246004653    -3.298239624082     0.005338632818
H     -1.662249553306    -4.408157753686    -0.473136573018
N     -1.785184817793    -2.238204234900     2.120687611619
C     -1.017930956119    -1.611011247398     3.053597746697
O      0.236811147585    -1.566380143881     3.020213402941
C     -1.752253853511    -0.981387685457     4.169149694820
H     -1.023373502646    -0.501246499425     4.844903294502
H     -2.428176690095    -0.221861442269     3.742105508848
H     -2.322025246899    -1.766579552349     4.693747204956
N      0.054273591525     0.571128635680    -2.852306064575
C     -0.593797494189     1.491699106460    -3.631401587951
C     -0.416267801625     1.485953490370    -4.999345462980
C      0.401693277808     0.550673017250    -5.595717189677
C      1.022146529982    -0.373037622758    -4.796462728200
C      0.806549244649    -0.343366512221    -3.402096479724
H     -1.231123677028     2.236723121015    -3.168927981796
H     -0.923651435499     2.219755547065    -5.604652620161
H      0.545591121048     0.541662390684    -6.673078239983
H      1.659933025123    -1.136432297602    -5.196878145231
O      1.428955666176    -1.290291268766    -2.734624397842
H      1.062126577197    -1.570031145735    -1.774876015354

