# STO-3G

title

0 1
C      0.327800820104     3.527095803430    -0.134135138179
C     -0.860950305826     3.945422398503     0.502560772164
C     -1.807429669050     4.717555911096    -0.197402522314
C     -1.584329598268     5.076853290839    -1.539870250574
C     -0.404891274692     4.653841282577    -2.183038164092
C      0.542525457224     3.887793835914    -1.482038085196
H     -3.378111391665    -0.711910400162     0.121808777342
H     -1.062182035129     3.656018408510     1.529384996295
H     -2.716857576716     5.036052520771     0.306771289483
H     -2.318572152231     5.670762112112    -2.079095214181
H     -0.227251319470     4.912105613762    -3.224327849147
H      1.443836310442     3.552500878326    -1.994479849569
C      1.394063444179     2.768368414911     0.637920006499
H      2.054748546739     2.196945237647    -0.205596150859
H      2.182588175416     3.437166234544     1.005171788264
C      0.950059970895     1.744090718719     1.635146493479
H     -0.111359200093     1.566925308625     1.736430383188
C      1.720227537016     1.465547561914     2.859310612901
O      2.977129535476     1.500294146128     2.776289093944
O      1.081188728108     0.837652261110     3.938669937637
C      1.919163190051     0.476120170574     5.044907256967
H      1.296235111501     0.006722927858     5.836969915825
H      2.692856970560    -0.261072379474     4.731927293983
H      2.412953836131     1.374795146235     5.478945367821
Pd     1.744493150330     0.458591393409     0.204188074587
C     -0.605345885277    -1.054445618849     0.514916933027
O     -0.866629600035    -0.639671546522    -0.678321115254
O      0.578570995530    -1.152636693360     1.034649178509
C     -1.832076129700    -1.332466216879     1.424140719420
H     -1.548049074094    -1.080941592321     2.449059108087
C     -2.297541435211    -2.770117270896     1.367524429596
H     -3.168253010291    -2.900559355991     2.042862406997
H     -2.609084924724    -3.018222846834     0.332014126526
H     -1.480983951362    -3.449979781151     1.685984922162
N     -2.934233546585    -0.469858794777     1.000634799121
C     -2.958238738246     0.834202871787     1.383485095554
O     -2.154516213506     1.359151002422     2.193712250671
C     -4.016749434350     1.661158790925     0.770443976056
H     -4.988154085942     1.195980122442     1.006455718308
H     -3.954823635701     2.679403363758     1.190174707913
H     -3.842727247853     1.683792702341    -0.319742659913
N      2.621793006985    -0.468367410348    -1.512451144534
C      3.960332756641    -0.755492790499    -1.542633985457
C      4.556422896612    -1.148974359510    -2.722667131276
C      3.812903989247    -1.268842988317    -3.876704801377
C      2.472268453846    -0.994734451150    -3.816074139218
C      1.895514190443    -0.605017020033    -2.588068598586
H      4.553927912320    -0.655779086514    -0.641099962701
H      5.612400747175    -1.365538807309    -2.738889972353
H      4.276681828295    -1.578859513593    -4.809556882685
H      1.832943403578    -1.080717706593    -4.672666735177
O      0.598782896117    -0.391973233397    -2.642163773531
H      0.028302050052    -0.414432822309    -1.742637973543

