# STO-3G

title

0 1
C      0.318198803056     3.577032048841    -0.005850255618
C      0.088153876570     4.928461982998     0.329652489542
C     -0.928488775395     5.661336974629    -0.310738109282
C     -1.719938342106     5.052655728803    -1.303637576956
C     -1.486179256483     3.707890850177    -1.650424343049
C     -0.473708817395     2.975129097338    -1.005422355055
H     -3.365712806421    -0.776103442624    -0.049969069927
H      0.695199052422     5.407033776592     1.096028321621
H     -1.098360543935     6.700672438198    -0.039244466208
H     -2.500341851153     5.620222270854    -1.805068060735
H     -2.080430481845     3.231536666352    -2.426657193345
H     -0.297073696134     1.938859445703    -1.285987265251
C      1.386422873485     2.797870704329     0.735627790855
H      2.054568133180     2.258580287659    -0.123685929209
H      2.159997956216     3.446492432997     1.158369979257
C      0.898444740058     1.727172315850     1.667647812095
H     -0.170047061040     1.573911837436     1.728475746341
C      1.624170163471     1.382549685482     2.902438140535
O      2.883357740647     1.421941196530     2.867035716288
O      0.948099142263     0.698469849214     3.923696756956
C      1.747050315071     0.275976439581     5.037103999129
H      1.096801188544    -0.234336415980     5.780351817692
H      2.531038852268    -0.444690367541     4.711578675052
H      2.225360687308     1.148919608509     5.536028366805
Pd     1.736285897264     0.504800650085     0.207575713104
C     -0.586237717228    -1.097051076122     0.407553412856
O     -0.819806931475    -0.705286875513    -0.801558550019
O      0.582436994090    -1.154482956754     0.961826172500
C     -1.836689097070    -1.395152481279     1.277286056086
H     -1.583770179626    -1.155720585888     2.313174267125
C     -2.290968463421    -2.834703299772     1.187255229855
H     -3.180864057300    -2.979355952706     1.834134440642
H     -2.569368701624    -3.071050471698     0.139647374231
H     -1.480168897902    -3.513842369949     1.521564229323
N     -2.931075896144    -0.532262774689     0.832614884212
C     -2.948294240119     0.775456975944     1.210131662827
O     -2.156521097162     1.289114257715     2.036411441906
C     -3.977694376742     1.616584894154     0.567735270012
H     -4.963717934097     1.185987306676     0.807776182049
H     -3.886632499210     2.643795015160     0.962517821528
H     -3.795416471782     1.609102668147    -0.520669386142
N      2.700906527597    -0.354460438228    -1.499303636834
C      4.056169360033    -0.550999295570    -1.489115886949
C      4.713258122155    -0.898963385102    -2.650800475578
C      4.015500564907    -1.062070556098    -3.827737448265
C      2.658319272833    -0.878443714291    -3.807857051963
C      2.019476972371    -0.533060195690    -2.597483386706
H      4.613841410012    -0.416161473558    -0.569381424994
H      5.781466234870    -1.043689227112    -2.634949140514
H      4.527633500544    -1.334979262851    -4.746794959124
H      2.053639537073    -1.000467811234    -4.684912397237
O      0.713740816793    -0.403693273655    -2.692391092717
H      0.109343932722    -0.474231957669    -1.812801976126

