# STO-3G

title

0 1
C      0.935862996935     4.141454045394    -0.454109303760
C     -0.085537665793     4.999855966629     0.007535346678
C     -0.440287291302     6.147762427304    -0.725694939252
C      0.223855002438     6.456278296871    -1.927692174221
C      1.248969920499     5.608971713264    -2.391038950399
C      1.600755443191     4.462245180325    -1.657443879100
H     -2.426226508452    -0.430976535099     0.719667891007
H     -0.598602288820     4.780611491961     0.940804896085
H     -1.228891792402     6.799707569875    -0.357365729906
H     -0.051040333638     7.343318579797    -2.493067206141
H      1.770223723656     5.840909386591    -3.316710705452
H      2.394810164918     3.813106059245    -2.024811022463
C      1.351172507052     2.934285002443     0.365584338422
H      1.989783858065     2.238797375906    -0.399116744676
H      2.178144252131     3.156759677765     1.053576288887
C      0.272727049537     2.095418510813     0.988091013130
H     -0.750041736266     2.360900546129     0.754249693343
C      0.440548789235     1.519475545023     2.333729297951
O      1.578612927005     1.101609681208     2.669651906809
O     -0.672807195395     1.398834938289     3.177974979294
C     -0.440526858757     0.726298185887     4.424964485132
H     -1.386711601218     0.686316865331     5.008075162100
H     -0.109409728289    -0.323426086667     4.252902224821
H      0.321533397374     1.262878757160     5.033853232046
Pd     0.950308199832     0.786034369025    -0.474882384694
C     -0.241192405455    -1.552844998927     0.767712650495
O      0.935438291030    -1.970718718096     1.025785342713
O     -0.526255520595    -0.623392218364    -0.112197757942
C     -1.453862056319    -2.069299251707     1.563021022517
H     -1.145316996352    -2.284963731791     2.590053113765
C     -2.063638585276    -3.313519984238     0.956084574012
H     -2.908532062107    -3.653175306496     1.590484071581
H     -2.452140436535    -3.076239053734    -0.055501605274
H     -1.306224679979    -4.121703562746     0.891923303586
N     -2.458849270183    -1.005540539395     1.558436231858
C     -3.077961283701    -0.614860736933     2.702459683383
O     -2.939558201166    -1.176478412870     3.817036127920
C     -3.978370186113     0.555147729883     2.600347944395
H     -4.971242844006     0.239478602614     2.960748355950
H     -3.562687594670     1.342503914633     3.250140680309
H     -4.044853141453     0.909315814726     1.557242596861
N      2.001900635283    -0.250743164623    -2.007884781747
C      1.967172269787     0.216485427109    -3.294387271363
C      2.834539384107    -0.291840827117    -4.238155210383
C      3.730954363761    -1.283070234996    -3.903025314418
C      3.730251585568    -1.750221468195    -2.615428954043
C      2.821303378591    -1.213077293104    -1.678338832748
H      1.271164264757     1.002726145510    -3.563928908971
H      2.806073743134     0.088191837304    -5.246680778185
H      4.415926161170    -1.689247859548    -4.642841320663
H      4.390976833558    -2.530847299671    -2.292719589447
O      2.893251125270    -1.761022826404    -0.487294234824
H      2.075362533917    -1.712251862706     0.183186866545

