# STO-3G

title

0 1
C      0.751162406960     3.735750136038     0.273671820926
C      1.005936992726     5.096433994019     0.546179491550
C      0.255091522298     6.106774083013    -0.084556668441
C     -0.753941474251     5.762750857223    -1.003105769751
C     -1.005578479371     4.404728604403    -1.284238615402
C     -0.258680529402     3.394744935386    -0.653499941129
H     -3.869898051594    -0.420562423446     0.048139379219
H      1.784321124994     5.369407177055     1.257319141027
H      0.457529627267     7.151763284750     0.139216495912
H     -1.332911419810     6.540677429707    -1.495655628336
H     -1.779166860881     4.130625914504    -1.997819638562
H     -0.463339263481     2.350574004536    -0.885266466939
C      1.561612165607     2.672565509604     0.983223959438
H      2.276289907781     2.168298304966     0.109514145854
H      2.370388713149     3.091733480376     1.590404092384
C      0.816433937249     1.552452620050     1.627260994153
H     -0.262302300924     1.566202456867     1.576885471092
C      1.341307588108     0.839391372359     2.805414316681
O      2.592447742509     0.731664739659     2.907372731532
O      0.486252433824    -0.028054699778     3.501562932683
C      1.085600509160    -0.795901002699     4.554069305220
H      0.305491047019    -1.421261234361     5.039969641439
H      1.872205981800    -1.474230227485     4.152588997212
H      1.527070867037    -0.129283336517     5.329040995036
Pd     1.615268545223     0.523818604881    -0.003392162002
C     -0.970077358278    -0.685307605482    -0.014523616532
O     -1.208386899440     0.116978734022    -0.950446605433
O      0.253191297496    -1.148076610710     0.291836139806
C     -2.092205320083    -1.137428498853     0.956524539105
H     -1.686877994016    -1.057142740944     1.969714471787
C     -2.540593023994    -2.562512651355     0.716319162913
H     -3.328228941953    -2.828202659979     1.451461095799
H     -2.962107196776    -2.651286106792    -0.305993688187
H     -1.684923916254    -3.259506523372     0.829385479042
N     -3.247722230567    -0.254358575447     0.828446641420
C     -3.191393457950     0.990514059170     1.376191135901
O     -2.234683060308     1.411663982477     2.070503381454
C     -4.335378889783     1.893222106984     1.126692899944
H     -4.730882830480     2.204314319794     2.107431371757
H     -3.945692742079     2.764747346862     0.574607668965
H     -5.119463230634     1.381714673241     0.542006602458
N      2.625028183806    -0.277339757810    -1.720324852867
C      3.494883528150     0.503640117015    -2.433907401944
C      4.186690508138    -0.027436283250    -3.502612750883
C      4.004896591884    -1.342814117102    -3.870468092338
C      3.123132185038    -2.101729013400    -3.147587225080
C      2.434089366136    -1.520297506756    -2.062780760710
H      3.644442872065     1.539868437778    -2.153170781771
H      4.869996123591     0.595801059316    -4.056837689137
H      4.543739628387    -1.765933454708    -4.714327090718
H      2.926662660268    -3.128507263398    -3.385622717189
O      1.598247924625    -2.338419552166    -1.452445672006
H      1.020234993348    -1.905826147172    -0.704704060538

