# STO-3G

title

0 1
C      0.466250549704     3.432846296216     0.294111672431
C      0.333797931027     4.749580166062     0.783488426509
C     -0.538198083345     5.660293832561     0.158298563733
C     -1.279358657063     5.267022085207    -0.972514876629
C     -1.146155048844     3.955868371027    -1.470023150793
C     -0.279730263461     3.044546565124    -0.839819593094
H     -2.954637089696     0.401792612166    -0.410121194086
H      0.902281649361     5.062831964026     1.657118954284
H     -0.634825311280     6.670442132052     0.549122884818
H     -1.945945068794     5.973116546560    -1.461876881436
H     -1.707624072747     3.644661218446    -2.347843889227
H     -0.178825277790     2.034346366509    -1.236368863749
C      1.391506510481     2.462523841214     0.997768516871
H      2.123800225229     2.010574497245     0.131478166428
H      2.167400356555     2.961343708112     1.587881361137
C      0.754583013540     1.294341192664     1.682065976969
H     -0.321496703489     1.262248965023     1.697146525364
C      1.379629791839     0.636128087305     2.843337458564
O      2.637800177331     0.616939936576     2.889327070275
O      0.619381436892    -0.288706527491     3.573168618462
C      1.310971665516    -0.991954231035     4.614502229811
H      0.599678509240    -1.672221096113     5.131565891312
H      2.137867261631    -1.609854340623     4.196410759938
H      1.719928283373    -0.282017424717     5.368709237596
Pd     1.536163439914     0.325837237822     0.005072075781
C     -0.934859091535    -1.069961371990    -0.225746384143
O     -1.291828949845    -0.845492741864    -1.408817281748
O      0.303894829459    -1.460768854870     0.137851262924
C     -1.937610285199    -0.834381043631     0.930200091641
H     -1.410988135357    -0.668185179921     1.869499036820
C     -2.894839719499    -1.993255162812     1.101643642687
H     -3.589214710522    -1.774851278608     1.939247883285
H     -3.488311595207    -2.119585271744     0.171948241322
H     -2.335884658026    -2.925764091529     1.321605336260
N     -2.717361367571     0.356464385277     0.576713269036
C     -2.845895093571     1.419839766570     1.408121319437
O     -2.333418925716     1.499092266165     2.554303433932
C     -3.614530297032     2.574624511964     0.897974078842
H     -4.441015413887     2.760533066924     1.602753589278
H     -2.926862383926     3.437228453379     0.874187409891
H     -4.008286960968     2.370975120472    -0.112916849128
N      2.592103872806    -0.310141718269    -1.753234010600
C      3.382374040461     0.579231130486    -2.431899459727
C      4.151707456617     0.154539730592    -3.494605157007
C      4.127932554841    -1.163706660952    -3.894026191342
C      3.322897263607    -2.033851496925    -3.208816096408
C      2.547076547482    -1.561496473027    -2.129205765182
H      3.409187024441     1.619037189470    -2.127106044113
H      4.771417225975     0.863289236146    -4.020072699254
H      4.728359114307    -1.503365141745    -4.734022206628
H      3.246534629055    -3.069703551557    -3.475111952309
O      1.796979671421    -2.476136262120    -1.559991017995
H      1.121409635617    -2.115336204787    -0.832816815288

