# STO-3G

title

0 1
C      0.127227033750     3.394909328529    -0.871964590471
C      0.946944590934     3.703556763360    -1.990270423286
C      0.382405392862     4.097425087602    -3.217269320272
C     -1.016037891510     4.186031501308    -3.347727312558
C     -1.839649537028     3.882899263714    -2.243545127919
C     -1.280886056152     3.494827465705    -1.016137878742
H     -2.614389164261    -2.407640808446     0.753917716688
H      2.030791773109     3.671963605653    -1.887132700834
H      1.028309011837     4.331111062680    -4.059684745430
H     -1.458879038297     4.480344024076    -4.295710287712
H     -2.920562644435     3.930543837521    -2.340147474310
H     -1.933433232093     3.224300580388    -0.193847620266
C      0.805788575993     3.032209558106     0.396225410719
H      1.892436188042     0.832194175549     1.366639666572
H      1.892743184747     3.024933371008     0.326725073638
C      0.225806140641     3.039228978440     1.684642496180
H     -0.839127056117     3.177282558759     1.784355714637
C      0.999073749038     3.163745949142     2.928925423095
O      2.194339231326     2.762581229245     2.930800920935
O      0.310789694474     3.396141907187     4.129111838974
C      1.108496801609     3.409069971672     5.321540530246
H      0.455930636571     3.618639102724     6.197037215923
H      1.596714837694     2.421485034468     5.484422497441
H      1.885621771512     4.205165565843     5.270791832979
Pd     0.371107295346     0.929283936375     1.098471035170
C     -2.522270957389     0.508374970967     0.028301261235
O     -1.730749751150     1.168758275519     0.864373475354
O     -3.672724722869     0.885809474903    -0.312116293461
C     -1.893208993508    -0.836163082540    -0.493491317502
H     -0.882088805276    -0.640369424437    -0.856017267679
C     -2.674058898855    -1.474001735311    -1.621997691926
H     -2.179461439504    -2.418996669408    -1.928184305676
H     -3.707566092068    -1.692713027747    -1.284346803388
H     -2.710501823421    -0.784976419985    -2.490860631286
N     -1.808942249957    -1.810543308343     0.610889521233
C     -0.816757139882    -1.882893758038     1.501633298495
O      0.202729111944    -1.127783954389     1.575522971930
C     -0.906576292102    -2.982464223078     2.482154169929
H     -0.944607408679    -3.931117282726     1.919622024485
H     -0.020993355249    -2.958513811802     3.140062215475
H     -1.830182662736    -2.843915056741     3.071235076958
N      1.447041331757    -1.524524385088    -1.230469635511
C      2.401543927917    -2.255120241953    -0.578282286790
C      3.592642671959    -1.655887765896    -0.202712714428
C      3.836974559210    -0.333149616116    -0.502623492793
C      2.850724084053     0.383024820876    -1.136107639574
C      1.648747951899    -0.289506969923    -1.484727395738
H      2.221123340865    -3.300577757467    -0.357046680303
H      4.342034934514    -2.244672340860     0.301164469597
H      4.785866383614     0.129469171269    -0.242362893164
H      3.011554976990     1.396349255664    -1.439580214445
O      0.682575793365     0.432602654300    -2.133755914719
H      0.742527961598     1.403646809916    -2.016486240498

