# STO-3G

title

0 1
C      0.678145401367     2.642861200305    -1.209429338478
C      1.919537915242     3.075859311311    -1.712343888797
C      1.950523858526     3.972901079404    -2.801575302519
C      0.751950184321     4.431311343511    -3.379430910605
C     -0.481923664275     3.979817530526    -2.872409736283
C     -0.526840216647     3.079316120379    -1.787667860867
H      1.371008632754    -0.039051476771     2.576646189397
H      2.857575948343     2.721342246959    -1.291172567728
H      2.910464243124     4.305337673579    -3.191689720067
H      0.779742917193     5.125796427228    -4.215790237064
H     -1.413319676112     4.320617759275    -3.319725472956
H     -1.469100629626     2.694120170539    -1.416501574829
C      1.773002091571     2.599101935389     1.590425633786
H      2.255745406281     2.036275722991     2.392277840830
H      2.444286978037     3.206990491432     0.994247969629
C      0.391465919528     2.963022352886     1.689318155758
H      0.036438688549     3.779932102976     1.079451678784
C     -0.486378485725     2.643151952628     2.829694866727
O     -1.657720266270     3.102537286597     2.831524884917
O      0.016684593365     1.908174920838     3.913352385438
C     -0.961851473152     1.425614046301     4.844510944801
H     -0.456506085287     0.815546317680     5.624397856968
H     -1.488700910698     2.270138301382     5.342871708020
H     -1.706319639557     0.772094052969     4.332518511991
Pd     0.569525088943     1.322069898516     0.284437504189
C     -0.184871985602    -1.242388607442     2.565760733852
O      0.602783662916    -0.199639778450     1.983562253525
O      0.212559195306    -1.728832620619     3.628455633104
C     -1.480586354149    -1.594936804700     1.833595176775
H     -1.973981334299    -2.277354425867     2.536498238186
C     -1.223392861355    -2.366153424237     0.547015996622
H     -2.190447031776    -2.607868542839     0.059816609198
H     -0.612499442343    -1.756369304201    -0.141887597982
H     -0.683043926757    -3.309989430277     0.767711727598
N     -2.409910397761    -0.482503101910     1.614654397608
C     -2.345252605468     0.417438362442     0.674765596972
O     -1.422638484526     0.627185972582    -0.266326576914
C     -3.522214655349     1.303408252315     0.640108870287
H     -4.413878089515     0.669770418780     0.497419151056
H     -3.581126009376     1.821278176002     1.613134667605
H     -3.427183189220     2.030460946445    -0.182535912090
N      1.448186484451    -0.122982629864    -1.116963780143
C      0.762834442823    -0.604056768363    -2.201025416408
C      1.364805331390    -1.535392987709    -3.027491079115
C      2.649511110203    -1.973499751106    -2.772573615401
C      3.313032530326    -1.452331779167    -1.689646968382
C      2.654630794387    -0.506230537400    -0.883722444135
H     -0.244983804662    -0.262579545271    -2.405630610531
H      0.821160682809    -1.918488360283    -3.875539772458
H      3.125843499694    -2.706679393770    -3.418095686722
H      4.314216200776    -1.738507598895    -1.436637277491
O      3.376424834019    -0.015179635035     0.136971520325
H      2.850766907522     0.703709624223     0.585312225723

