# STO-3G

title

0 1
C      0.463010630016    -2.388765939930     1.517773923422
C     -0.703551302957    -3.150513102964     1.202793709897
C     -1.413646310924    -3.836843128795     2.236045521180
C     -0.981995106859    -3.733569774981     3.559592172702
C      0.181379279146    -2.969045785190     3.879944645523
C      0.901282979577    -2.315553555694     2.874864159078
H      1.017120908208    -1.945086870479     0.697575594877
H     -0.964202532892    -3.290973482532     0.159103283888
H     -2.287973650761    -4.430035677353     1.983460718528
H     -1.524002069301    -4.241784822698     4.352639222770
H      0.514288608470    -2.909961498113     4.913106872267
H      1.800196900215    -1.754465264735     3.113735077166
C      1.613759923733     0.850396581242     1.230842397584
H      2.074741261295     0.554255257442     2.172077620495
H      0.663073041580     1.374534849939     1.295860914919
C      2.155097936590     0.566834813220     0.022081821445
H      1.640992761370     0.881054679188    -0.875278061413
C      3.399704883916    -0.190340861424    -0.186443063948
O      4.041749618907    -0.631155646861     0.806704732759
O      3.821784856416    -0.453157106590    -1.502357127920
C      5.025767766678    -1.221453585244    -1.633069205827
H      5.258708652252    -1.359646160897    -2.710731394525
H      5.883970443055    -0.695132744178    -1.156811313724
H      4.905067729973    -2.227038947931    -1.169848318332
Pd    -1.290288468930    -0.861162015021     1.492608787817
C     -0.479153212116     3.429841724368    -1.164238241697
O     -0.123229754329     4.330901532541    -1.930858395329
O     -0.347483399436     2.102205507629    -1.456094842692
C     -1.125080737531     3.670963861759     0.240593421299
H     -2.027610534864     4.281370781994     0.068673256465
C     -0.185357479039     4.441051373899     1.144446685714
H     -0.650813780074     4.590642048179     2.139089150353
H      0.760787441675     3.875674689588     1.273433261809
H      0.044305292936     5.432491011316     0.699975276492
N     -1.346050885503     2.358007757459     0.828839179595
C     -2.299504872597     1.952999146051     1.593358164662
O     -2.396819303077     0.708310759278     2.047960259088
C     -3.378153347203     2.860015316917     2.044033255727
H     -4.063630082892     2.301154570062     2.707210452515
H     -2.921801224204     3.695389810877     2.598603031686
H     -3.931302772483     3.215043262539     1.157829558232
N      0.251150839763    -1.601334733450    -1.379074711160
C      0.963250090478    -1.915664111141    -2.504915726516
C      0.495488128064    -1.535660795340    -3.748222826362
C     -0.684872951088    -0.833490081294    -3.864263645974
C     -1.379246989894    -0.536497265092    -2.721275445941
C     -0.853095109774    -0.939699274303    -1.469292407561
H      1.894089175362    -2.463441303205    -2.416744893335
H      1.068314619330    -1.778173441737    -4.627182542998
H     -1.053036893829    -0.519298623658    -4.836994127987
H     -2.292296354846     0.022053151237    -2.738568788526
O     -1.613844876241    -0.529825138833    -0.451389327591
H     -0.712857192592     1.585827298607    -0.665192766659

