# STO-3G

title

0 1
C      0.067564734252     2.570568695974    -2.122002486716
C      1.274827759400     3.274486258606    -1.828557171393
C      2.327523098981     3.303357590189    -2.791184817911
C      2.167821853869     2.663436316629    -4.023141975475
C      0.960332041833     1.973611937561    -4.319859441230
C     -0.075418300213     1.925192768761    -3.384796017126
H     -2.154953274961    -1.031765534270     2.199457964767
H      1.322613685526     3.929493727726    -0.964504856968
H      3.233631828961     3.862883193572    -2.572958316379
H      2.958721928120     2.705280084110    -4.768484069042
H      0.843060865248     1.482068764686    -5.283048650934
H     -0.996702667398     1.395752427216    -3.612029516486
C      0.412175384876     2.453041901005     0.920149463401
H      1.172816613250     2.933167892505     1.542739471820
H     -0.789447435712     2.663175461796    -1.463834260686
C     -0.910764734344     2.522918696219     1.184795399300
H     -1.626989413121     1.966059385999     0.587577501666
C     -1.492253085217     3.270315748156     2.313827769754
O     -2.746637131646     3.298048890137     2.434052456378
O     -0.663507991070     4.069362300876     3.122192354505
C     -1.273010893506     4.577197917096     4.316717359802
H     -0.526740706659     5.169274976394     4.887868059984
H     -2.134552655048     5.239545210725     4.074491238029
H     -1.617562432918     3.739176053144     4.966415735898
Pd     1.202185161391     1.271392104745    -0.489742322034
C      0.224755288219    -0.609456835298     1.401594529797
O     -0.674596200930    -0.814297954483     0.494691815590
O      1.376094846607    -0.057771142247     1.175549609365
C     -0.169339598203    -0.951481851735     2.851261501259
H      0.379402073158    -0.301788907723     3.536791907699
C      0.088316315897    -2.400315238866     3.201768421427
H     -0.200385610924    -2.577674450124     4.258358572595
H     -0.531371518405    -3.051145404543     2.550710404853
H      1.162184116118    -2.643660118224     3.068265006141
N     -1.600498351406    -0.691579971606     2.980750865911
C     -2.085976403307     0.263619376119     3.818829448723
O     -1.391327323794     0.963420827805     4.593339528640
C     -3.550139406740     0.453392032423     3.768352423860
H     -3.827990581364     1.249396731218     4.480737773810
H     -3.815112009292     0.756155838399     2.741467518318
H     -4.031240344104    -0.502709102099     4.035111762210
N      1.920475360530    -0.195852704767    -1.897579902021
C      3.179242110207    -0.103201848810    -2.426898839423
C      3.567037311373    -0.950966319993    -3.444443894607
C      2.696496816978    -1.901114931681    -3.931747546021
C      1.448423796223    -1.985303445330    -3.373889393594
C      1.093969601419    -1.107369203758    -2.326362620090
H      3.865232376583     0.649291904393    -2.056177251620
H      4.557603037485    -0.865027484239    -3.859631087830
H      2.994234380888    -2.570752364875    -4.734259885172
H      0.726193257299    -2.708090751616    -3.697617712082
O     -0.125627738213    -1.289308093434    -1.860415088549
H     -0.364191463278    -0.959392010466    -0.878823134915

