# STO-3G

title

0 1
C      2.193604495054     2.461844878999    -0.182088037082
C      3.424597878034     1.924330363159    -0.700497561190
C      4.155938446857     2.724159398723    -1.636031279790
C      3.701782026378     3.988809272387    -2.021033765744
C      2.490061007670     4.506538349015    -1.485188297232
C      1.747989500840     3.764005064982    -0.567267996525
H      0.489583799939    -1.377925326493     2.227027086309
H      3.884554082753     1.050541457121    -0.252352361714
H      5.095648943768     2.336563757750    -2.021652705581
H      4.279820219874     4.582997842998    -2.723715271131
H      2.141535104802     5.492053791844    -1.782130655116
H      0.844183965487     4.153221244459    -0.108493017538
C     -1.529467163840     0.536666669367    -0.046677625849
H     -0.643035221549     1.126731075324    -0.274184011216
H     -1.518077042059    -0.479158782969    -0.433216354931
C     -2.587298850678     0.994341221197     0.657064476365
H     -3.436671878515     0.350866263529     0.838561669971
C     -2.680860230968     2.328935382021     1.267167427535
O     -3.793946995406     2.713951120389     1.715947071001
O     -1.597987976699     3.220831061322     1.151471534001
C     -1.719222360067     4.443609070390     1.889909357580
H     -0.795803297726     5.046644437507     1.756733301403
H     -2.586105057905     5.041149950176     1.527937524747
H     -1.840736825853     4.234562825978     2.977364859922
Pd     1.657084052764     1.052914072920    -1.762522771755
C      1.532262453196     0.770223504632     1.526414200194
O      1.600384722746     2.049028266071     1.083751695953
O      2.036361022135    -0.221699069379     0.954309464043
C      0.690008455277     0.644607014217     2.799362215885
H     -0.050180070755     1.447586644453     2.838594251528
C      1.534129869374     0.688290694655     4.055777302852
H      0.872625053025     0.621330006918     4.944180198931
H      2.229239712965    -0.175901313060     4.060941254039
H      2.108181611316     1.636860627450     4.097338398634
N      0.008207354007    -0.644904001878     2.739702578113
C     -1.286974340662    -0.771008077075     3.126510677582
O     -1.980273115587     0.157712866024     3.600819831772
C     -1.876026204370    -2.110463946513     2.928215961829
H     -2.925925327346    -2.086159655482     3.268110753825
H     -1.815863027702    -2.346024543956     1.853233989919
H     -1.288618334409    -2.831547841392     3.521932868688
N      0.380289023839    -0.334084672793    -2.747565936983
C     -0.200384418055    -0.081096059330    -3.963016300276
C     -1.015988570968    -1.028032703401    -4.547968962817
C     -1.257816024826    -2.230798194595    -3.918201994224
C     -0.666321655927    -2.454514944014    -2.702227039349
C      0.160007804952    -1.459783093221    -2.146199144492
H     -0.017764779495     0.862958184908    -4.463539439660
H     -1.471385203591    -0.821572115464    -5.503703018910
H     -1.902171069630    -2.979550472777    -4.372178176600
H     -0.814235461833    -3.365165216357    -2.154304326596
O      0.658057508857    -1.773839933541    -0.947996811919
H      1.234688054055    -1.056969068520    -0.553206722215

