# STO-3G

title

0 1
C      0.205112652855     2.898068194665    -0.842260151219
C      1.365745897684     3.107134755593    -0.029558573923
C      2.320553567598     4.089927686428    -0.427514025836
C      2.123531115860     4.851128823896    -1.582905799645
C      0.960995501556     4.644419938956    -2.369721191413
C     -0.000694074113     3.694709926757    -2.013270817150
H     -0.938945753777     0.094977614574     1.216677422900
H      1.413788643108     2.683725220033     0.965117598571
H      3.190613838145     4.253554850635     0.203441723321
H      2.852529853410     5.602250551159    -1.874633994081
H      0.804880112743     5.238228732039    -3.267015613705
H     -0.890328792013     3.552339723642    -2.611249285884
C      0.924120066331     0.492286363362     2.837868467372
H      1.702813375687     1.162546527586     2.479801110838
H      1.171484569287    -0.564689067778     2.798843941001
C     -0.273040429167     0.930850785000     3.293354629777
H     -1.021121669973     0.223810014744     3.627153479122
C     -0.681963802354     2.342580457152     3.349203676913
O     -1.829062653659     2.627793337784     3.785625783776
O      0.256414464584     3.350793971976     3.062034808075
C     -0.298310061138     4.646072222196     2.796050363456
H      0.521346476892     5.356655781251     2.557984299620
H     -0.979967319368     4.604336686896     1.914437870309
H     -0.852997919377     5.033209566745     3.680674732244
Pd     1.648573246753     1.227726572334    -1.242974674497
C     -1.821758474965     1.468318160799    -0.971037675750
O     -0.868230867504     2.156520033289    -0.215445715804
O     -2.008078795555     1.632167637501    -2.180968062053
C     -2.590158735961     0.470600558288    -0.095331028195
H     -3.152352634114    -0.185088110285    -0.766249818532
C     -3.556123531289     1.151159223813     0.852019812295
H     -4.102871203518     0.384656102083     1.438616187504
H     -2.991251907257     1.800205759869     1.550277683128
H     -4.283790218868     1.764947010476     0.282835961874
N     -1.675878737645    -0.361692646970     0.686263422938
C     -1.794094548492    -1.719595781333     0.637554471647
O     -2.618023596584    -2.340746074854    -0.073111211048
C     -0.901115828636    -2.475809770668     1.538882398183
H     -1.132597472704    -3.550875726606     1.439494376814
H      0.135111289213    -2.278736914373     1.238061309811
H     -1.090757002627    -2.136857910818     2.571125913612
N      2.099862292634    -0.782256052646    -1.743204565745
C      2.156434273628    -1.304370778326    -3.009029658224
C      2.451270181777    -2.641899210368    -3.186789915738
C      2.674955192173    -3.463708636615    -2.100545531174
C      2.605248426326    -2.913690653258    -0.845477774726
C      2.303374457665    -1.547087807186    -0.719638069979
H      1.975804923990    -0.666645606857    -3.866966836471
H      2.490357154704    -3.048784728715    -4.185084068218
H      2.896232734102    -4.519450901722    -2.236252941773
H      2.757151116950    -3.496026831426     0.041986753262
O      2.217799399834    -1.087560059977     0.536681974675
H      1.958106905517    -0.107062446625     0.473695659220

