# STO-3G

title

0 1
C     -0.424557501648    -0.121440374197    -2.661178802568
C     -0.144786780148    -1.185182623545    -3.542142762362
C     -1.195914501893    -1.976840096642    -4.047028122265
C     -2.526721686682    -1.700609246155    -3.673509418046
C     -2.805492212840    -0.634872360891    -2.794028748542
C     -1.755047382674     0.154650828555    -2.285394176623
H      0.380602834981     0.493178929964    -2.266874834956
H      0.882133086481    -1.398091781473    -3.832673089796
H     -0.980793338393    -2.800636471450    -4.724075190365
H     -3.338612409049    -2.310773313865    -4.063074492763
H     -3.831376353916    -0.421333713989    -2.503226595669
H     -1.963030253587     0.974177424009    -1.601047310384
C      2.848057693229     0.866753779764    -0.501300124296
H      3.581571750849     1.172026721898     0.252984484504
H      3.140827964703     1.218745944714    -1.496045486050
C      2.601517129517    -0.638535860318    -0.516349618104
H      1.801327893843    -0.873229442121    -1.218410646249
C      3.758877771141    -1.550828666116    -0.792013560911
O      4.937110903658    -1.141336265063    -0.585789177216
O      3.528011690799    -2.722697322087    -1.541329328087
C      4.683604409925    -3.524761590500    -1.819652855932
H      4.376649958524    -4.423850440847    -2.395227543944
H      5.422236087778    -2.955538634283    -2.428065776031
H      5.164590057016    -3.862720746066    -0.874018146493
Pd     1.085957498320     1.817703236796    -0.184665365531
C     -1.390104440892     2.206590414146     1.219628840199
O     -0.815342429324     2.679055040092     0.114600711357
O     -2.565858626780     2.408342074477     1.593859773954
C     -0.439936978433     1.336763588625     2.148858851544
H     -1.099529073617     0.643387502390     2.685808281040
C      0.274370875801     2.217725401204     3.152093965625
H      0.895869533161     1.596792102463     3.828682784426
H      0.935546712056     2.931571571614     2.619808789994
H     -0.463962922210     2.782315283233     3.759549788426
N      0.619103081066     0.643978149525     1.360409216042
C      1.097489252094    -0.541252153354     1.547998495968
O      2.050866748499    -1.134189539065     0.817204399219
C      0.614985800724    -1.391680673248     2.654465555899
H      1.185017394412    -2.339411659636     2.652922997213
H      0.788453012600    -0.863512550999     3.604725369459
H     -0.452972654846    -1.612869001603     2.489922527790
N      2.136696609353     2.276904087783    -3.534538811706
C      2.440211386574     2.170282058265    -4.865038935295
C      1.758989216506     2.940853153724    -5.791597917707
C      0.777504234440     3.820814009385    -5.382977163688
C      0.503101407633     3.912394252548    -4.040457746949
C      1.237934925006     3.090176326529    -3.151301963041
H      3.207765403671     1.477040087215    -5.188950701685
H      1.998920531909     2.846176546004    -6.837998704804
H      0.239972570937     4.428976398139    -6.105941871807
H     -0.237626443434     4.590154137669    -3.669099607725
O      0.943964581439     3.209250275974    -1.815526210432
H      0.052505784814     3.548529495599    -1.564654845675

