# STO-3G

title

0 1
C      1.491206928142     3.627564812760    -0.527692828006
C      1.695478496543     3.856262326142     0.865842010209
C      1.154254390093     4.991478521583     1.506954376869
C      0.408579175346     5.928669610607     0.774340468558
C      0.212866530563     5.727477053253    -0.613132726359
C      0.746710333008     4.600979713068    -1.253264921386
H     -2.259301201465    -0.473386756211     0.396773327461
H      2.324361954678     3.166616785200     1.428417195513
H      1.332613904325     5.142379872943     2.568972408376
H     -0.005454383353     6.806004580777     1.264342574287
H     -0.351469002766     6.458006724128    -1.188465015292
H      0.593237564664     4.460211038997    -2.321111721352
C      2.027476242785     2.404517254980    -1.187755642906
H      2.180802235346     2.518458248055    -2.260805615055
H      2.923812556198     2.001097433036    -0.702874202119
C     -0.211863130883     1.852797804054     0.374718902599
H     -0.932286963239     2.628911995407     0.124077811987
C     -0.115311319138     1.563640816091     1.815229727257
O      0.909504188628     0.962604773111     2.230038836997
O     -1.066890694695     2.102757420411     2.695993356887
C     -0.871646776941     1.797068059075     4.084514295726
H     -1.702067346499     2.233544073668     4.679830574549
H     -0.875153580928     0.695672305223     4.255009784146
H      0.088048555112     2.223641358883     4.453351355028
Pd     0.735681549764     0.802785957516    -0.951021063394
C     -0.159432770073    -1.625314660541     0.514962331823
O     -0.533240731213    -0.927168827861    -0.519727755230
O      1.029035432212    -2.068300971512     0.714894958167
C     -1.238751358809    -1.832526598828     1.597921155564
H     -0.786023940165    -1.713972281502     2.587418172308
C     -1.891187929911    -3.196605785705     1.516991237183
H     -2.629306610709    -3.302076064406     2.339081498100
H     -2.420609270130    -3.292720453250     0.546942063267
H     -1.126007858890    -3.994529682892     1.610391206251
N     -2.258036516030    -0.803821517454     1.361012192046
C     -3.059530399391    -0.330681158763     2.347337668602
O     -3.007047486483    -0.698156424519     3.546325680935
C     -4.046366230359     0.701271298902     1.958172626507
H     -5.045214577509     0.320447229790     2.226931333619
H     -3.810773259132     1.610232699137     2.535830601762
H     -3.991228590123     0.908296681747     0.875635558517
N      1.794577890106    -0.267976637288    -2.420688849230
C      1.667300563089     0.117034246146    -3.728572408986
C      2.520979699215    -0.387019891615    -4.686214851821
C      3.492488542550    -1.301638325955    -4.345656677168
C      3.578130233640    -1.701262481986    -3.039007000792
C      2.679630387427    -1.175410041783    -2.083564972493
H      0.912405049937     0.844080281039    -4.004842096976
H      2.420837755919    -0.066795159909    -5.710684902980
H      4.166165101407    -1.705566775071    -5.096940314920
H      4.294923020020    -2.429225350836    -2.713318442043
O      2.827696971132    -1.668150511659    -0.884680969237
H      2.007507720554    -1.750498819177    -0.160867994532

