# STO-3G

title

0 1
C      1.882478942661    -1.781008987435    -0.767013453847
C      2.541373687750    -0.658538209413    -1.357210081226
C      3.851256269968    -0.295329413604    -0.936117515709
C      4.495853138396    -1.047142562842     0.048194805052
C      3.854119990290    -2.176688377909     0.624960050212
C      2.566596734451    -2.536450800889     0.226938495610
H      0.925486668991    -2.103537999564    -1.180513142137
H      2.089708061723    -0.160363851114    -2.211772526863
H      4.344114948488     0.560411036654    -1.390195125063
H      5.493644590768    -0.769717759222     0.378915720552
H      4.371001754234    -2.753516573209     1.387608762634
H      2.077419352341    -3.399671321576     0.669915457188
C     -0.948114361654    -2.511116650110     1.147643946609
H     -0.909587308933    -3.597665444101     1.134804501019
H     -0.135246431869    -2.006604679361     1.662759887634
C     -1.906064594206    -1.805724923904     0.507151007904
H     -1.872028475874    -0.723514055789     0.508469033724
C     -2.992977727242    -2.383454411202    -0.298533851519
O     -3.124962726832    -3.635042381234    -0.387706638732
O     -3.898128877305    -1.506948811057    -0.924035361465
C     -4.885097098667    -2.121488237536    -1.763278352500
H     -5.531094973898    -1.334642311047    -2.207780642233
H     -4.400766432549    -2.682933617361    -2.593997318761
H     -5.530107107116    -2.812984163137    -1.175073614496
Pd     0.778341861490     0.158901513024     0.112090256557
C      1.462461266205     0.737586446926     2.834318259077
O      1.865096586201     0.028470552229     1.762648903284
O      2.117998828312     0.810494774625     3.890439914020
C      0.082809320709     1.452054989284     2.694716922411
H      0.239409041183     2.452477489283     3.119486031083
C     -0.980591602760     0.725210432949     3.496893180514
H     -1.951161816973     1.255235992667     3.436058389991
H     -1.116551331743    -0.299141694202     3.097811764510
H     -0.676345870163     0.660146939089     4.563055996421
N     -0.346990519485     1.485834479386     1.278885701649
C     -1.201005022482     2.305659442305     0.719955939311
O     -1.534478027368     2.252661207209    -0.550965288709
C     -1.897402985466     3.384344365110     1.452813937084
H     -2.982445689376     3.209262578868     1.345951149581
H     -1.638658970042     3.423748576684     2.517525921129
H     -1.630634494116     4.343058402566     0.973078694806
N     -0.680626221231    -1.699407440011    -2.470104734723
C     -1.244727134005    -2.511198130088    -3.416244436872
C     -2.063748329367    -1.970146652775    -4.390705975677
C     -2.311006314522    -0.613900293842    -4.420288739169
C     -1.726054923895     0.176159876412    -3.464289288353
C     -0.898241099107    -0.432262699769    -2.488204649724
H     -1.054691404602    -3.577865780366    -3.392309534255
H     -2.504105761986    -2.617551284775    -5.130537292752
H     -2.951453922316    -0.181832604373    -5.184371185636
H     -1.876576950873     1.235898619396    -3.438655386803
O     -0.380248715330     0.423249096133    -1.592472832027
H     -1.062174677177     1.459804507265    -1.133178977638

