# STO-3G

title

0 1
C      0.714979041154     2.786005694584     0.620323513869
C     -0.305911441055     2.809767599779    -0.378356971750
C      0.064560054281     2.920048479594    -1.748638044622
C      1.409782208047     3.020235040949    -2.106463108745
C      2.420506504217     3.018629207621    -1.107178216646
C      2.081550826470     2.903947940884     0.242241308321
H      0.441007171562     2.799197569586     1.671970720853
H     -1.348013090282     2.867424700765    -0.060861605199
H     -0.710981526297     2.938401233026    -2.510039455235
H      1.691337594474     3.104344637442    -3.153181314398
H      3.463582061364     3.110220936492    -1.400202081454
H      2.849043049514     2.910000282293     1.010606665999
C      1.797655151102     0.511160603668     3.332730290417
H      2.105099879193     0.555872480237     4.375147205082
H      0.759104148322     0.763010579363     3.135717318095
C      2.631685139932     0.160092520456     2.322663023400
H      2.223711868730     0.140504356875     1.326277089596
C      4.066821984177    -0.184049357635     2.501750916735
O      4.539765086802    -0.196294196657     3.666046587794
O      4.933602304193    -0.476376405042     1.427585750756
C      4.400273761988    -0.511085071499     0.096005569883
H      5.218534260019    -0.749379215583    -0.617632847634
H      3.633456349972    -1.309382161901    -0.004955572755
H      3.979394327604     0.475785336434    -0.201418174745
Pd    -0.191130521863     0.542182062350     0.432788061279
C      1.105806552997    -1.283861505423    -1.349035348292
O      1.109132701833     0.018434279176    -0.989407283922
O      1.904738284198    -1.766383323762    -2.171695354961
C      0.024877218863    -2.153080471159    -0.632384276119
H      0.449024010218    -3.159152741702    -0.518496277213
C     -1.243164799177    -2.240731689855    -1.454468138952
H     -1.988254075857    -2.878140735664    -0.936530281689
H     -1.673334308669    -1.226224793696    -1.588688354509
H     -1.022890160447    -2.679051162683    -2.450692788614
N     -0.325905613477    -1.504031416108     0.645097429465
C     -0.628316455801    -2.080419797699     1.775541644383
O     -1.006574067904    -1.422634860295     2.852388396803
C     -0.525055656510    -3.541987250267     1.936261819632
H     -1.193416569635    -4.028272127410     1.206371704587
H      0.527968591689    -3.833642283524     1.783006879800
H     -0.833644142946    -3.820147500728     2.961735972873
N     -2.773828944279     2.560288614322     1.506481597469
C     -3.821882320898     3.382381815455     1.820986045073
C     -4.418316907354     3.297498943892     3.065665331141
C     -3.961943826949     2.391042844164     3.998704070052
C     -2.909191537821     1.580989823294     3.657808366955
C     -2.338346618270     1.709510136807     2.367137038087
H     -4.182182710041     4.097959918854     1.091198507283
H     -5.242340531068     3.949648347976     3.303990913980
H     -4.423457750373     2.322664791468     4.980302654453
H     -2.505673818474     0.864802509397     4.344072468554
O     -1.308280344392     0.883480170301     2.137605978574
H     -1.172074408663    -0.379511060530     2.684956867775

