# STO-3G

title

0 1
C      2.255674326265     2.537254540147     0.106327789058
C      2.692092712533     2.632647256317    -1.233443260816
C      3.260720745907     3.818066046290    -1.736629307811
C      3.416288048970     4.938679771109    -0.899659426231
C      3.016767286247     4.851211538998     0.448477215619
C      2.451573409835     3.662470753546     0.944722925681
H     -2.344334175025    -3.475782958441     1.516892628993
H      2.601418783088     1.764997902447    -1.883687639655
H      3.586957488485     3.859721060551    -2.773875218404
H      3.856616250971     5.855746630664    -1.284447928495
H      3.158598642763     5.701195810453     1.112768746166
H      2.183505932390     3.605646049648     1.999406467017
C      1.653345866324     1.250866405657     0.642919742796
H      1.756920731126     0.440920871649    -0.083632733734
H      2.239990079819     0.896666934912     1.503901823566
C      0.186710641204     1.284397595024     1.128692067304
H      0.067358570103     0.563686051812     1.933430354734
C     -0.467814874784     2.558410098830     1.471145507403
O     -1.420411287477     2.920613635799     0.728915334943
O     -0.352826491432     3.041431659806     2.785195109800
C     -1.110935976787     4.221325371310     3.084482718436
H     -0.923956494182     4.520227241032     4.138478447336
H     -0.807000399134     5.064983265747     2.423990136572
H     -2.202250871972     4.031205938401     2.968488668317
Pd    -1.253295898729     0.563345019177    -0.162899280486
C      0.383669073421    -2.125277436901     1.098383686221
O      1.509907672341    -1.652225789245     1.363650933488
O     -0.146461224694    -2.301872959766    -0.110465154841
C     -0.587913952909    -2.507803126457     2.261761933673
H     -0.493444613738    -1.711260230667     3.007438683786
C     -0.224032389837    -3.825132876768     2.910086568806
H     -0.920331689458    -4.031004251442     3.749292923138
H     -0.306785460537    -4.641962046055     2.164106993291
H      0.814461902101    -3.785366043842     3.299825024623
N     -1.979294877136    -2.578668467906     1.812526385789
C     -2.650532756336    -1.479073046099     1.456481247379
O     -2.196164065383    -0.294926670684     1.582494818315
C     -4.000135888337    -1.676244377127     0.895652561906
H     -4.598022728317    -2.222210259112     1.646106343190
H     -4.454004707602    -0.691683709172     0.688731027676
H     -3.908594856212    -2.271113107119    -0.030397237596
N     -0.296223991691     1.032679815195    -1.881224444448
C     -0.437406561361     2.278383963287    -2.429360362733
C      0.091814745360     2.547970918597    -3.673225579930
C      0.786237750008     1.582661674096    -4.365374162228
C      0.942022170110     0.349993955329    -3.789603200569
C      0.391062365880     0.088184726933    -2.512118190644
H     -0.981425555479     3.047332209204    -1.894335121542
H     -0.027645110615     3.532267909804    -4.094745311230
H      1.212608360895     1.797763974305    -5.341463630257
H      1.491491148763    -0.434539038837    -4.270365184018
O      0.636357836809    -1.087057784978    -2.049034914478
H      0.265126326477    -1.725473972284    -0.979056372670

