# STO-3G

title

0 1
C      2.967050045631     1.193304845945     1.695889226442
C      4.062107292029     1.296478140217     0.813679119706
C      4.718039508426     2.532322831085     0.648111937448
C      4.281085689468     3.665354798957     1.363558108280
C      3.188290846771     3.561752814882     2.247552361121
C      2.531776751653     2.325821893576     2.412929241066
H      2.453819980452     0.242270206031     1.807047159923
H      4.395575786952     0.420007814582     0.262181289684
H      5.562108249565     2.610461301989    -0.033405874877
H      4.788141472528     4.619137804443     1.234967551884
H      2.852854736897     4.434908842216     2.803157764804
H      1.689632410049     2.247371327461     3.098423747043
C      0.017025794740    -0.704742573224     2.431952645806
H      0.088397485573     0.390628466941     2.392820168606
H      0.584140705901    -1.033472863099     3.309076171148
C     -1.444307728486    -1.155706259399     2.496991675062
H     -1.521267986411    -2.220931886564     2.277833332049
C     -2.228882931064    -0.867088417349     3.742978396311
O     -1.812345765508     0.020582574037     4.540728223521
O     -3.201469766058    -1.799906376328     4.155016490652
C     -3.879670444023    -1.495997877471     5.381650305251
H     -4.632520786029    -2.285873675240     5.590710481968
H     -3.162788210101    -1.463644824373     6.233045592257
H     -4.410331575021    -0.519920085001     5.306675208264
Pd     0.806422179147    -1.376425138302     0.685002545368
C      0.939762090594    -0.852460620497    -2.207018227339
O      1.534616875936    -1.641756426799    -1.303116172948
O      1.170993505099    -0.838601236208    -3.429810254330
C     -0.107878818091     0.154310574438    -1.604119997747
H     -0.891204301253     0.255852677314    -2.366864450407
C      0.531520300147     1.509514626073    -1.379549470946
H     -0.219260276126     2.227808110708    -0.992771889098
H      1.349845941343     1.423924395815    -0.636445896287
H      0.945288750213     1.902035253901    -2.332305961942
N     -0.617789815581    -0.301107187689    -0.286336917274
C     -1.815515668523    -0.145387219882     0.172876795135
O     -2.250935795388    -0.507392607037     1.390034767608
C     -2.881797841969     0.468990186611    -0.644753744959
H     -2.569844197311     1.486673231324    -0.928062547881
H     -3.056109036858    -0.171820369009    -1.524161193135
H     -3.812729005845     0.526793101507    -0.049395557043
N      2.289633734111    -2.581685666479     1.528199444939
C      2.110097311683    -3.257548472921     2.707355774148
C      3.170022538537    -3.905631004172     3.305893981114
C      4.415956699776    -3.900771395787     2.719966769808
C      4.563682580486    -3.261410621502     1.518834042325
C      3.453090571807    -2.624128890004     0.927216091712
H      1.134489076580    -3.282973059864     3.177300863654
H      3.018301499234    -4.422349965205     4.239985786049
H      5.255056318433    -4.408677723745     3.188393457453
H      5.497877793000    -3.248357134234     0.992746675928
O      3.698567616580    -2.096346685605    -0.251004227838
H      2.852598416184    -1.861745116066    -0.836591589333

