# STO-3G

title

0 1
C     -0.282049072955    -0.411111925363    -3.143142203125
C     -1.664883931330    -0.187939384654    -3.301341314407
C     -2.462886393436    -1.146169492078    -3.957019510587
C     -1.879518612783    -2.327126550742    -4.458449826749
C     -0.495412677856    -2.546541683157    -4.309844358880
C      0.302430780449    -1.588105410733    -3.654020650575
H      0.321987977377     0.332403952331    -2.630761482104
H     -2.106100136362     0.731415622621    -2.924325212639
H     -3.529501563122    -0.971680653302    -4.077230971561
H     -2.496416777960    -3.066930100843    -4.963479367019
H     -0.042557155206    -3.454312876763    -4.701879769979
H      1.372823022005    -1.759317074812    -3.554251085381
C      2.578669876239     0.392332820350    -0.987765479983
H      3.565502340466     0.617404458297    -0.567877349035
H      2.652525229824     0.319236113552    -2.080797258750
C      2.021660212154    -0.935412789019    -0.455588093293
H      0.975844176637    -1.038973969452    -0.749682369331
C      2.735342693967    -2.202458103205    -0.822617556611
O      3.909333046027    -2.133371857175    -1.287085409712
O      1.974447459006    -3.378017367669    -0.978793725157
C      2.688574989380    -4.532255719807    -1.440800267377
H      1.989814124766    -5.393608526287    -1.505196793216
H      3.115466206351    -4.353651632392    -2.453396591472
H      3.506737667248    -4.798064478472    -0.733951486211
Pd     1.230110965854     1.853588265402    -0.552270992077
C     -0.926194873907     2.817360074814     1.206244394776
O     -0.486251355516     3.024728887707    -0.039419103363
O     -2.037545117377     3.138910814895     1.663855124871
C      0.152764502730     2.129799875036     2.116936228745
H     -0.392977911838     1.710353389479     2.970599525612
C      1.160659593800     3.143949113664     2.618282870573
H      1.900796516528     2.651543132389     3.280589577621
H      1.698106714642     3.595795474346     1.759729713978
H      0.644523924902     3.944395126838     3.189054741405
N      0.909803432296     1.114410193604     1.336496053871
C      1.326474758679    -0.025886661736     1.777093505345
O      1.988688862135    -0.939153262222     1.051173114265
C      1.126911124630    -0.444463346789     3.179707121333
H      1.611392045768    -1.427017046576     3.331741105917
H      1.597527736470     0.298796800442     3.841275170629
H      0.045043042645    -0.545797840895     3.369082537225
N      1.412727149669     2.775818379378    -2.410013103229
C      2.616776432476     2.892178320286    -3.055307381266
C      2.669872950000     3.373711740438    -4.345889988350
C      1.519621153663     3.757040718592    -4.998682051167
C      0.332622292026     3.672789693755    -4.322630832648
C      0.316081340064     3.189548247452    -2.997644300392
H      3.531006799861     2.592382290289    -2.556866100163
H      3.620899146199     3.444612215787    -4.848884717284
H      1.554780333541     4.130725484465    -6.018766610720
H     -0.596562268444     3.973984103350    -4.764985966090
O     -0.871529314715     3.191668030723    -2.437337389115
H     -0.891636707135     3.119237901713    -1.381924494928

