# STO-3G

title

0 1
C      2.357098238974     1.289542855425     1.953199548083
C      3.450361907199     1.518669266634     1.094260821360
C      4.481965175059     2.392225799148     1.491259729298
C      4.420295531259     3.035270610220     2.744854101642
C      3.324787699181     2.807368086124     3.601758711967
C      2.292374631249     1.933761800363     3.203901463774
H      1.570822727761     0.603137454012     1.644745752432
H      3.486096787367     1.017110898139     0.129957175307
H      5.326006130515     2.570248934205     0.828648505045
H      5.217878849681     3.709438119705     3.049401930918
H      3.275478342719     3.307023521658     4.566717014065
H      1.439929902635     1.757422089851     3.857860801705
C     -0.295799687868    -2.615200927139     2.002309572437
H      0.263877106486    -2.797187898070     2.923828762509
H     -0.441354807120    -3.571796380423     1.483851807450
C     -1.641783052597    -1.976748169147     2.321068513166
H     -2.273856367599    -2.645990458491     2.901555913031
C     -1.636444120556    -0.636374230632     2.972961497555
O     -0.593881401881     0.075379566724     2.906108826832
O     -2.687013524375    -0.294400058136     3.845892891680
C     -2.587118521992     0.990695456300     4.474762074342
H     -3.475705908207     1.152131960401     5.122235046823
H     -1.676685961741     1.049234778298     5.113008579374
H     -2.559560208311     1.801922201660     3.712543926535
Pd     0.764498466010    -1.502687323653     0.673312048069
C      0.859415303676    -0.332236410828    -2.030681017840
O      1.723784326086    -0.740221769590    -1.093773324904
O      1.107742407374    -0.177837994134    -3.241556229707
C     -0.566018365639    -0.000527866206    -1.472778552098
H     -1.240869545128    -0.095724639362    -2.333252070863
C     -0.629257684538     1.423633830896    -0.960490619567
H     -1.661143547641     1.664658474253    -0.633672605268
H      0.049786753766     1.539321396099    -0.090492846653
H     -0.327733262546     2.134383656101    -1.758298298998
N     -0.935615355896    -0.877057927879    -0.328227632033
C     -2.125652255587    -1.305360997355    -0.069423151641
O     -2.491563180944    -1.921569319550     1.068791316470
C     -3.239800857352    -1.160008318201    -1.028270046487
H     -3.414946644571    -0.087206980836    -1.208046903119
H     -2.972535882276    -1.698131278684    -1.952405253021
H     -4.153189155984    -1.610123891881    -0.595471139463
N      2.597487959018    -2.083952949548     1.464725012993
C      2.874438559833    -2.003583389368     2.804482288253
C      4.064411488565    -2.498699914215     3.296286483073
C      4.996630289076    -3.052746157590     2.447288268594
C      4.721363221820    -3.073365104112     1.105932129380
C      3.503921655231    -2.535957845437     0.637706140354
H      2.154967244868    -1.560128539230     3.482809121324
H      4.267955724872    -2.437164611709     4.352815489143
H      5.937575114698    -3.440007813096     2.829073446019
H      5.422081854681    -3.447237874382     0.386168729623
O      3.385462160489    -2.510543483411    -0.671901116530
H      2.689328771451    -1.806760549466    -1.029749472144

