# STO-3G

title

0 1
C     -1.080813970628    -2.266510328070     0.883561456531
C     -0.927445187404    -1.745349654105     2.184818230865
C     -0.775685764219    -2.614691582292     3.283104283990
C     -0.772918313150    -4.009899522799     3.083243874896
C     -0.924142030643    -4.533974319761     1.783785215956
C     -1.078429118438    -3.662342154334     0.687121008725
H     -1.185066305687    -1.598755762136     0.033551859598
H     -0.927855879180    -0.668536226358     2.341416091094
H     -0.662220073480    -2.208788380282     4.286026039730
H     -0.654720898096    -4.681500279109     3.930809914638
H     -0.919913890105    -5.610619036514     1.627701515664
H     -1.187094772593    -4.066225887783    -0.317575682511
C     -1.347693979602     1.082045530208    -0.415758065615
H     -1.796211815896     0.356761032481     0.269789078404
H     -2.139434346274     1.444972458905    -1.084492318204
C     -0.717174097055     2.259286552644     0.330191043646
H     -0.176058388414     2.891577396310    -0.376221612901
C     -1.603583677404     3.134492386349     1.166728424547
O     -2.736400722866     2.704808065161     1.528701314512
O     -1.291295705603     4.505271906867     1.270154163857
C     -2.204393557221     5.298700796221     2.040334297953
H     -1.845528392668     6.349732724674     2.066587026259
H     -3.219775667482     5.288000368065     1.583620871336
H     -2.264641106261     4.924033655435     3.087147605041
Pd     0.084182397771     0.227436972189    -1.608572192935
C      2.832541039825    -0.519227700877    -2.104315380181
O      1.706794563898    -0.394452490698    -2.797162108380
O      3.988985312698    -0.648325796070    -2.569924732036
C      2.630568476761    -0.557649101906    -0.537364824008
H      3.583545459460    -0.257998280069    -0.084385295629
C      2.280288437993    -1.962742026236    -0.089998714125
H      2.096855665985    -1.992347961695     1.002523093100
H      1.360185144380    -2.299716948535    -0.608441527746
H      3.109548808383    -2.658286388631    -0.335567959383
N      1.493986269981     0.323568075931    -0.146468741637
C      1.383703898207     0.992445366090     0.950724970618
O      0.345913493321     1.779669244290     1.290521108991
C      2.425448112637     0.948552468712     1.997339449125
H      2.101141070340     1.569892439482     2.852408982170
H      2.544818327800    -0.093094642563     2.331946644714
H      3.360355230214     1.362705612619     1.584698511069
N     -1.214941461226    -0.045468523700    -3.169461559397
C     -0.760369142202     0.333056685869    -4.405965338532
C     -1.543676754177     0.107986092334    -5.521622525059
C     -2.767689364524    -0.513174045495    -5.405383342634
C     -3.187570649390    -0.899972147954    -4.156344749749
C     -2.346271145598    -0.640764015158    -3.045567708858
H      0.196113599896     0.832991662314    -4.505875726073
H     -1.181782986640     0.415351676768    -6.489725919730
H     -3.380286140135    -0.700009040490    -6.283803789799
H     -4.119824261167    -1.409169630238    -4.026371555865
O     -2.732510195523    -1.067898887519    -1.822762888646
H     -3.650122143537    -1.380623622425    -1.741443497384

