# STO-3G

title

0 1
C      0.227837286939     0.932919098894     1.332761755838
C     -1.119106940189     1.181090032235     1.662542843299
C     -1.439988138486     2.109098658574     2.673280151202
C     -0.412090964038     2.792564209049     3.353088146095
C      0.935743983356     2.548411905446     3.020196739458
C      1.255344249634     1.619875764761     2.010341471631
H      0.493181471348     0.224219350337     0.551741833075
H     -1.916403638781     0.657129225340     1.140407737021
H     -2.480321349690     2.295135818963     2.930867180724
H     -0.658319377485     3.505055782938     4.137372454984
H      1.731626493180     3.072265624237     3.544911198876
H      2.292054084510     1.425651393264     1.742650267282
C      0.536880912875     0.357339873258    -3.492626629787
H      1.256237853406     1.000198087158    -4.009009831370
H      0.078371577955    -0.341721408579    -4.198438166448
C     -0.521505475421     1.246157265541    -2.832931798932
H     -1.112764660811     1.791186738700    -3.566495162970
C     -0.042385245262     2.208623956297    -1.801492961872
O      1.120364168023     2.054914168492    -1.331166404252
O     -0.745948031351     3.412288726550    -1.606179724664
C     -0.223868292601     4.277652989945    -0.588165980052
H     -0.865734090954     5.180197789999    -0.507330427595
H     -0.220100905346     3.766352483427     0.400786110346
H      0.810866601637     4.604478892512    -0.836716279563
Pd     1.423416055556    -0.698621552742    -1.987167293216
C      1.010901013384    -2.628237372659     0.210549244366
O      1.955353988924    -1.788266948894    -0.220074534375
O      1.048217676334    -3.326347863882     1.239281292135
C     -0.230629718239    -2.709744488535    -0.757286335031
H     -1.080123228728    -2.997613443033    -0.125181264369
C     -0.029941482863    -3.768634291447    -1.818932630139
H     -0.927587269892    -3.823709082874    -2.468454634843
H      0.849810935659    -3.512665525571    -2.443479865558
H      0.133770219562    -4.758777182841    -1.343730354365
N     -0.416085876563    -1.421063193943    -1.468211568803
C     -1.521352445411    -0.777852242856    -1.636770841376
O     -1.646023337386     0.413932599332    -2.241385815497
C     -2.814063674274    -1.326653941321    -1.181273278799
H     -3.622784380018    -0.631625778801    -1.474744260551
H     -2.970342506235    -2.299794234408    -1.673649590818
H     -2.796399946597    -1.418378613769    -0.082410662376
N      3.383229011511    -0.045344253570    -2.290957593943
C      3.885805415440     0.275588311072    -3.523989267149
C      5.107532132839     0.905634105604    -3.637734901876
C      5.840601050660     1.216733258076    -2.514723767381
C      5.338693218398     0.858204957025    -1.293531539018
C      4.088636582579     0.206027705649    -1.215151115200
H      3.329028624567     0.026026617541    -4.418524412680
H      5.487263653857     1.159760175738    -4.613623472439
H      6.801291413380     1.718166478293    -2.596595164228
H      5.868003007547     1.049406113906    -0.381462428402
O      3.746851790770    -0.139188160037     0.008296347891
H      2.977577861688    -0.847107674642     0.092212257219

