# STO-3G

title

0 1
C     -1.416715527793    -0.068798842254    -2.742151765960
C     -2.363410611718     0.773429198832    -3.358422317169
C     -3.565016170569     0.233021898458    -3.857685499190
C     -3.819781682677    -1.148501309613    -3.741638065073
C     -2.872103132538    -1.990677176722    -3.126071566971
C     -1.670282450775    -1.450619734874    -2.626083647844
H     -0.493531754034     0.356139959407    -2.354053034797
H     -2.159234336688     1.838635298597    -3.440934484324
H     -4.297067007381     0.884050928100    -4.330201438208
H     -4.748279101906    -1.564326499272    -4.126902086211
H     -3.067868568719    -3.057180521042    -3.038688816361
H     -0.936816553757    -2.101900885875    -2.154890779170
C      2.258437815311    -0.445182949155    -2.077559993400
H      3.150137571004    -0.235251808827    -2.674117614867
H      1.453298909464    -0.766589745734    -2.749153269235
C      2.563730757915    -1.526759434356    -1.049812919314
H      2.817663179089    -2.473542424846    -1.522641575993
C      3.585327037547    -1.206216914811    -0.011711477946
O      3.884380230139     0.004308879020     0.205066693740
O      4.356594832002    -2.249473318529     0.535472043988
C      5.353105698190    -1.858997715115     1.490012256340
H      5.882468499725    -2.763832162277     1.858591532691
H      6.104524329906    -1.182694109610     1.023336736025
H      4.885508064148    -1.349179310885     2.362404384480
Pd     1.530923973430     1.221472934622    -1.155299548788
C     -0.505089403025     2.371011468798     0.673462804559
O      0.223202560731     2.746044551921    -0.383815485289
O     -1.494945384634     2.969476251983     1.134107040404
C      0.015519225068     1.062163435888     1.359192828450
H     -0.859191424978     0.636845476065     1.868038695908
C      1.075436977275     1.370401557795     2.394698367022
H      1.367098524376     0.438785824528     2.921747712171
H      1.974924598522     1.786739127245     1.893464106406
H      0.691050979652     2.101993150153     3.135965642940
N      0.652520644163     0.140167144908     0.385254336641
C      0.515293743711    -1.141691466154     0.360063769533
O      1.276023677155    -1.968749243862    -0.383013572010
C     -0.509056807575    -1.844042599775     1.155965930080
H     -0.449142401595    -2.926644227351     0.940012528811
H     -0.300209493888    -1.672833254481     2.224092028051
H     -1.503207913318    -1.465685151451     0.859734123290
N      2.125077878020     2.465079727134    -2.709577990611
C      3.388109041309     2.439926117646    -3.239156024189
C      3.674785808470     3.158963950881    -4.381085582617
C      2.704445804302     3.924792183669    -4.988918746486
C      1.462785094568     3.974849566048    -4.413792650788
C      1.211495877930     3.242967793233    -3.234070435900
H      4.163755107619     1.848792603565    -2.766974228616
H      4.668576043374     3.121600888621    -4.796935351044
H      2.924636754268     4.492144459835    -5.889446436510
H      0.673408911158     4.579750782117    -4.814069515599
O      0.011509422989     3.418568424969    -2.726675391592
H     -0.070539790512     3.173984424384    -1.695757446401

