# STO-3G

title

0 1
C     -0.880327982118    -0.136629322157    -2.842454148863
C     -0.018638115976    -0.317575651285    -3.942865548127
C      0.214644116695    -1.608618666320    -4.456195510716
C     -0.419062598114    -2.723456578564    -3.870456650797
C     -1.294539160646    -2.542680770953    -2.780824082121
C     -1.527333316855    -1.249726378905    -2.269785840917
H     -1.043455481001     0.857315674457    -2.437645834666
H      0.463922966215     0.545919348877    -4.397009677547
H      0.880591909311    -1.744923065952    -5.305395242231
H     -0.236463197212    -3.721715363976    -4.260956132835
H     -1.788686729057    -3.401689567843    -2.332928030048
H     -2.206660855001    -1.108520879518    -1.432241893629
C      2.406972373114     0.426867447067    -1.230477269209
H      3.425130970958     0.618904836611    -0.872944432279
H      2.384985535351     0.418295817361    -2.326683182743
C      1.868694860145    -0.922589429283    -0.743964126627
H      0.807008403119    -0.998488366863    -0.976701210045
C      2.538692540512    -2.173246219804    -1.227867597091
O      3.675727832397    -2.093663199631    -1.776751626079
O      1.785853012114    -3.362890880982    -1.302214083841
C      2.448335028079    -4.489106872034    -1.891433237221
H      1.763169082482    -5.363171437569    -1.881338187319
H      2.724293320878    -4.273767366088    -2.948255881299
H      3.362818105851    -4.753945660722    -1.314236608310
Pd     1.113282937696     1.875148128349    -0.626319874574
C     -0.955426475211     2.735356953628     1.289505945654
O     -0.564714598563     3.034088040185     0.046715308879
O     -2.049199683881     3.016693858490     1.812696234716
C      0.159793233221     1.987182355912     2.103151380562
H     -0.348212234159     1.517325244096     2.953949563338
C      1.197425223427     2.964006348610     2.618271612423
H      1.963950545780     2.428813245844     3.213844710556
H      1.698007106244     3.465140894996     1.764757181508
H      0.714293234387     3.730316791053     3.260319675442
N      0.870962358903     1.019608604185     1.224906513958
C      1.306243081247    -0.145608568452     1.575561029168
O      1.926054505839    -1.013760683907     0.763627527541
C      1.177785630150    -0.645935711623     2.959847666925
H      1.664830709144    -1.636669713841     3.027382516728
H      1.686402146938     0.055561829537     3.638485799617
H      0.106919171040    -0.756406536860     3.199302168511
N      1.232833230541     2.918896927838    -2.427053298855
C      2.405815125671     3.035004828724    -3.127455699915
C      2.409520712808     3.590985022310    -4.389157722261
C      1.243071803982     4.055928761734    -4.953883168012
C      0.090033157661     3.969154925460    -4.221758611292
C      0.123885597240     3.405419448755    -2.928811383278
H      3.333318199863     2.676015435263    -2.697451220932
H      3.336018432283     3.661682822701    -4.936268477473
H      1.240199020101     4.493354331337    -5.948969095133
H     -0.848340908437     4.332620373554    -4.592663148400
O     -1.033679688322     3.412030106255    -2.308158273132
H     -1.011609638799     3.261178601671    -1.257890704735

