# STO-3G

title

0 1
C      2.547318739142     1.656993766819     1.585397111381
C      3.801434697703     1.453891916805     0.974106725261
C      4.914775860768     2.216712251555     1.378188835849
C      4.775716738261     3.182809484744     2.395256535212
C      3.522371436228     3.386548654499     3.006320796522
C      2.408700291619     2.623590014146     2.600858037587
H      1.697615941851     1.050110377214     1.280103911415
H      3.908131511973     0.705551938054     0.191151909242
H      5.881509019861     2.060976372246     0.903944737846
H      5.635177927735     3.772548444806     2.706884664512
H      3.414386105653     4.133928651644     3.789616729202
H      1.441149147902     2.785084308430     3.073015953317
C      0.007275400035    -0.849310725315     2.474882262338
H      0.205453291398     0.168801746530     2.829219628645
H      0.448610250005    -1.573521610138     3.171125545085
C     -1.492677462008    -1.137440282995     2.377166272972
H     -1.644252085745    -2.101193969892     1.884756368258
C     -2.304653385532    -1.114749384161     3.638767699835
O     -1.841434430130    -0.532742615857     4.661116861994
O     -3.399121003433    -1.995684559819     3.749615554174
C     -4.097128265796    -1.972278547649     5.002182471238
H     -4.945022326124    -2.689121851444     4.963581973265
H     -3.423631313727    -2.273889630392     5.836010081273
H     -4.507227271512    -0.957204449484     5.205365032329
Pd     0.845151972347    -1.189700240409     0.651359990707
C      0.537101117876    -1.290171965133    -2.275681707380
O      1.379461279666    -1.744274583519    -1.342072276528
O      0.427452973916    -1.706222089634    -3.442999425186
C     -0.323530253933    -0.081933838381    -1.765741767059
H     -1.179999063240    -0.007263776340    -2.446320373358
C      0.474970154697     1.205245303373    -1.825578522121
H     -0.129728560376     2.053343074317    -1.446891033621
H      1.386461474010     1.114687031701    -1.201633483450
H      0.774577166920     1.418143278796    -2.873272734201
N     -0.715101560589    -0.293539366255    -0.345037631289
C     -1.834034432508     0.064027899069     0.192110560126
O     -2.179734592533    -0.145857225295     1.471536223591
C     -2.879095781070     0.776444804823    -0.571865818770
H     -2.454714362499     1.707855144001    -0.977145057064
H     -3.246935636800     0.106177804569    -1.365330598824
H     -3.718445880190     1.024328969324     0.105254552507
N      2.566592570572    -2.053214350451     1.459418910468
C      3.141906073482    -1.600724975816     2.620592860876
C      4.223655133644    -2.259939855008     3.164128476891
C      4.749025529271    -3.372423083242     2.547929021954
C      4.184383380970    -3.788438720232     1.372953480416
C      3.090051523402    -3.079504662860     0.833019158768
H      2.742757023384    -0.729682596501     3.125186927240
H      4.659357857655    -1.896721442797     4.081117406383
H      5.600005075250    -3.897025939113     2.974524476281
H      4.562595487406    -4.630689891800     0.827686853246
O      2.680246629110    -3.534423787378    -0.327532359337
H      2.080165420086    -2.885294442241    -0.903364447102

