# STO-3G

title

0 1
C     -0.131624087371     1.518556858477    -1.962634881260
C      0.532287930035     2.744382071162    -2.205731309675
C      0.193914458080     3.538273074939    -3.320972140164
C     -0.812022702419     3.119304698953    -4.215061460699
C     -1.477015824074     1.899998270226    -3.982483967503
C     -1.138958589990     1.105449441747    -2.865581276706
H     -2.138303509268     3.540426573257     0.123210334905
H      1.304498247030     3.093814288128    -1.522418110541
H      0.713537784179     4.480642702647    -3.488988332494
H     -1.070463191938     3.730967067200    -5.076962594155
H     -2.253739894136     1.563962239785    -4.667849411236
H     -1.666207664343     0.166217471182    -2.706432625169
C      1.315804961032     2.452291736781     1.706080116489
H      0.279585159513     2.731639465957     1.556774136803
H      1.986717099503     2.693466083683     0.884352782735
C      1.785042652236     1.818373484551     2.804140645260
H      2.829414393584     1.543320082243     2.859475029005
C      0.967442976884     1.380272491885     3.946215267900
O      1.550107161915     0.910971889598     4.959976968087
O     -0.436903643796     1.510687077842     3.907310803322
C     -1.135871059531     0.965023538746     5.035933057916
H     -2.227050298775     1.124480843924     4.914159788547
H     -0.949610564348    -0.130925643606     5.121008994086
H     -0.816940882091     1.465283003718     5.978641954002
Pd     0.329035857891     0.360977074952    -0.392790853105
C     -0.527027426173    -1.275111123463     1.948464863674
O      0.594890911747    -0.883243002554     1.356190411112
O     -0.638921424913    -1.951251830753     2.988802476935
C     -1.816880462714    -0.781100619701     1.182318515340
H     -2.623841284610    -0.755291067957     1.925456557225
C     -2.204072657985    -1.728940209895     0.070325054409
H     -3.112237636551    -1.349764006778    -0.442252636382
H     -1.379987837289    -1.802554447463    -0.667958715824
H     -2.414767299575    -2.736878330204     0.485261592061
N     -1.514861410188     0.516362624967     0.546652906963
C     -2.120212215331     1.627745341288     0.751442584901
O     -1.559814360379     2.770598959919     0.273649251252
C     -3.368802966936     1.722674927575     1.539749885763
H     -4.122753910307     1.063116328960     1.078261401128
H     -3.139088602285     1.426835086178     2.576223332673
H     -3.732342943547     2.765333105247     1.538480037621
N      2.284211494995     0.025009943420    -1.070154627834
C      2.639672626102     0.203047402490    -2.384689636455
C      3.964315192681     0.137421752944    -2.764352562717
C      4.947588783375    -0.117194286373    -1.837446450849
C      4.572995424652    -0.327133749942    -0.539155633341
C      3.207613486413    -0.269259639134    -0.184766619356
H      1.887034511932     0.386363830543    -3.140139941737
H      4.226373996196     0.288808693491    -3.798824517791
H      5.992721645938    -0.166533825599    -2.131535360943
H      5.286862523483    -0.555410368829     0.227673225868
O      2.986624674537    -0.530717077001     1.082288210259
H      1.997265940253    -0.709671017803     1.375075750784

