# STO-3G

title

0 1
C     -0.676552687158     1.743678612759    -1.303569609966
C     -0.283856804963     3.057514641319    -0.953008333652
C     -0.664007147440     4.162174429677    -1.743257672028
C     -1.444156746153     3.976468348463    -2.901445957758
C     -1.839271757569     2.673903279657    -3.261653546713
C     -1.458506079899     1.568464480394    -2.470649417167
H     -3.089075210542     2.433374635096     1.321464756881
H      0.316856170516     3.234034355017    -0.064184997199
H     -0.348633928024     5.163209795336    -1.451060474003
H     -1.735295096610     4.829170004981    -3.511196353925
H     -2.438956027370     2.514546219501    -4.156497918535
H     -1.775058786102     0.572782882860    -2.775311634428
C      0.337471671631     0.664563357144     2.982937903037
H      1.123167934410     0.019135760576     3.366074534522
H     -0.652206892488     0.221871302779     2.922342007426
C      0.557817412936     1.917325594719     2.525484042345
H     -0.259354441342     2.476009283443     2.093437657963
C      1.874179943589     2.574658061344     2.496340520636
O      1.970304273634     3.718126942046     1.974743403929
O      3.007924366413     1.898279311510     2.983786877615
C      4.263997101673     2.563497721362     2.796425496162
H      5.078210077116     1.931446310656     3.210823814168
H      4.465737802885     2.724282683035     1.713103440390
H      4.276004978394     3.542528397698     3.326602066248
Pd    -0.174562580520     0.129358157949    -0.220310976750
C     -1.035756324071    -2.488587721019     0.935196735644
O      0.042737095131    -1.712134737413     0.912695831166
O     -1.145614905627    -3.618370863704     1.445983006582
C     -2.274140289695    -1.812648812339     0.219631700836
H     -3.173417264924    -2.217557620508     0.701932754227
C     -2.317755605975    -2.144914393203    -1.253607902991
H     -3.186244459962    -1.638417496520    -1.723433058010
H     -1.388079584163    -1.798412376373    -1.748423052226
H     -2.417823713827    -3.241780252505    -1.393182826702
N     -2.115243783697    -0.350134531877     0.324355941543
C     -2.887835432254     0.471292423902     0.931456621188
O     -2.430536127973     1.727758132023     1.181042026552
C     -4.222671271756     0.081665782319     1.437730935654
H     -4.816736098099    -0.296530976285     0.588331920906
H     -4.089608863452    -0.685922496225     2.218264095942
H     -4.724815501289     0.960516576372     1.879862452454
N      1.895276685523     0.343229396541    -0.546489674405
C      2.396010417565     1.172952834936    -1.520115099540
C      3.754626341101     1.390249058707    -1.623192273384
C      4.630015709192     0.777674629195    -0.759112828837
C      4.119157544554    -0.066624713248     0.186366696629
C      2.724670010322    -0.278591872281     0.259257035104
H      1.737621455913     1.652988423153    -2.230640388712
H      4.127068878659     2.051715117697    -2.388254423432
H      5.700227046882     0.950949453213    -0.832883167001
H      4.745874561543    -0.585372007709     0.884100636769
O      2.381146835664    -1.136741184817     1.191475248311
H      1.396224733027    -1.491092589023     1.201590582959

