# STO-3G

title

0 1
C      2.485614882037     1.109107167125     1.833970895256
C      2.589099972224     2.373790763001     1.197815325063
C      3.337152612490     3.420292266910     1.773327665799
C      3.991615491747     3.231521517378     3.007214135408
C      3.892328362850     1.987755052672     3.658320524035
C      3.152889149416     0.937201212655     3.074077391735
H      0.530719532268     1.102575121330     2.694496196222
H      2.078379594909     2.547304127178     0.252275936486
H      3.401858852889     4.380937301211     1.265436377518
H      4.563139022230     4.041362296888     3.455295912224
H      4.386218129847     1.831936438710     4.616116688802
H      3.101400365936    -0.019572732495     3.592848591815
C     -0.164157955137    -1.586225872150     3.912786622480
H     -0.649013290279    -1.235040956591     4.820235694601
H      0.921754753194    -1.621028513142     3.910973293483
C     -0.840328700121    -1.938550757770     2.794557439358
H     -0.293389468656    -2.229174518673     1.908912676551
C     -2.303836167711    -1.893988311917     2.645466586285
O     -3.039945374274    -1.670724478502     3.645019490362
O     -2.851811007514    -2.025306523661     1.356412909794
C     -4.283584116978    -2.058492930062     1.281405745665
H     -4.592474005634    -2.176007960602     0.220106054966
H     -4.687756921143    -2.922055103394     1.856807958769
H     -4.725087439250    -1.115041999423     1.674604721855
Pd     1.564670912623    -0.425920267919     0.877105810649
C     -0.378344588857    -1.539460802860    -0.992661346777
O      0.630696124858    -1.954049396441    -0.236420765698
O     -1.014112448107    -2.217820485330    -1.832595902982
C     -0.763710788161    -0.016312559517    -0.798541630213
H     -1.855153656321     0.041762016315    -0.902916500266
C     -0.121816485964     0.850852783929    -1.858965609581
H     -0.424074896381     1.907987648208    -1.712169234091
H      0.982094938501     0.778922048733    -1.781127884343
H     -0.441759152374     0.517730418949    -2.868558146282
N     -0.257758334314     0.461996582025     0.507900318929
C     -0.898710229721     1.159754730219     1.384672229469
O     -0.389767555153     1.466402579180     2.584784467871
C     -2.262092998378     1.662909480823     1.150089863123
H     -2.251316014051     2.291741210693     0.245154114859
H     -2.935516918050     0.797245290147     1.043981205627
H     -2.578450381836     2.265878781535     2.021889887028
N      3.278374032903    -1.540081540994     1.085148741381
C      4.430596837982    -1.148149367256     0.459218266261
C      5.530969723596    -1.983695419414     0.459593866948
C      5.479938001326    -3.207047343737     1.093029495604
C      4.316565569427    -3.565483707283     1.728002576966
C      3.219426285996    -2.670101812830     1.692289192296
H      4.474276874344    -0.188197681999    -0.042384844462
H      6.433405523777    -1.670678852004    -0.039717083919
H      6.345051948087    -3.865111850461     1.099681029540
H      4.239169032471    -4.491140379504     2.258952121165
O      2.099132732049    -2.985902750651     2.366690873607
H      1.945508531578    -3.928998282898     2.551866223038

