# STO-3G

title

0 1
C     -0.480395776862     1.589331802319    -1.827088309624
C      0.134626934880     2.864116922816    -1.832736673906
C     -0.065161853860     3.757396841453    -2.905585835394
C     -0.881837624628     3.392783074459    -3.994333628147
C     -1.497433334901     2.126245041433    -3.999475805797
C     -1.298227947005     1.232412009433    -2.925412250545
H     -2.932204165170     3.236458458926     0.303543917647
H      0.765608944951     3.172096016942    -1.001597363674
H      0.415111027483     4.734841894224    -2.888749866068
H     -1.033929222922     4.081515999921    -4.822746595650
H     -2.128623288981     1.830759953330    -4.836299119507
H     -1.784123275966     0.258609874144    -2.954022861395
C      0.596209998561     2.448519474884     1.790095136942
H      1.545280685913     2.790407079223     1.379319634989
H     -0.287730941678     2.641447379704     1.192876151096
C      0.513913746264     1.772443640157     2.958586966977
H     -0.443528683224     1.402992334655     3.304370214591
C      1.664782959034     1.431686276778     3.809620741681
O      1.456189313119     0.837276486552     4.901248139797
O      2.953240206724     1.879668778468     3.456926643256
C      4.021083275777     1.427117542525     4.299652894547
H      4.984465689572     1.828984703719     3.920224218876
H      3.879926556591     1.785837918136     5.344409859732
H      4.079587386455     0.314734014513     4.294053071712
Pd    -0.220282263631     0.285043422722    -0.324443215512
C     -1.358024821845    -1.746618461592     1.532067455365
O     -0.200247095797    -1.137727859504     1.299107649063
O     -1.589225277772    -2.645757124453     2.361021822552
C     -2.518685461879    -1.200600832636     0.606632557891
H     -3.453550195772    -1.345379578872     1.163682895558
C     -2.602030717786    -1.964638116594    -0.694465649631
H     -3.420494885514    -1.549057960885    -1.318003856932
H     -1.646274000337    -1.874484573840    -1.249172548216
H     -2.807527113321    -3.036981185598    -0.493059771881
N     -2.210470925973     0.200085103918     0.258235679470
C     -2.907995150392     1.236426730989     0.541544138769
O     -2.344245186136     2.462135841855     0.371964439708
C     -4.272055948684     1.147687231248     1.109010212563
H     -4.898958261793     0.564132584822     0.413541002111
H     -4.205296981306     0.668293172205     2.100289235781
H     -4.694923082889     2.160917496504     1.228457496389
N      1.850650596755     0.148434288570    -0.621256251100
C      2.440369759579     0.513525680756    -1.806200081560
C      3.814156215071     0.585377100562    -1.908966212755
C      4.614180172715     0.284504869730    -0.831634995850
C      4.011991093048    -0.115293638295     0.328969834353
C      2.604184513673    -0.193932353736     0.398005062642
H      1.836849772019     0.739785397957    -2.675381885143
H      4.260143707476     0.884290387081    -2.843453039200
H      5.696608068463     0.346908445051    -0.905531236735
H      4.576408934154    -0.381177977040     1.200267504303
O      2.162534849140    -0.631541713474     1.554442731995
H      1.154386789393    -0.908077502568     1.612076579076

