# STO-3G

title

0 1
C     -0.123877213037     1.513850384772    -1.914968177178
C      0.535079614140     2.758610802969    -2.052119837739
C      0.185979908491     3.647960371478    -3.089241408663
C     -0.825961297192     3.307579115442    -4.009501519248
C     -1.486103117348     2.070247124129    -3.881949681208
C     -1.137416154014     1.179920320472    -2.843247020005
H     -2.095373365602     3.330273202132     0.444038619192
H      1.312120329093     3.047847403803    -1.346370953786
H      0.702011116975     4.603206590937    -3.176025463659
H     -1.092817144484     3.993216387362    -4.811030670279
H     -2.267659754780     1.794621972007    -4.588442230372
H     -1.661206152576     0.228602011116    -2.764566109210
C      1.433375482906     2.136985565246     1.709852360963
H      0.526715176376     2.678124199487     1.460162221020
H      2.182873697381     2.080855975939     0.924041515594
C      1.648247262048     1.512644281787     2.890310190230
H      2.562502586266     0.954521163277     3.039518453611
C      0.703688610700     1.484524960781     4.018018871209
O      1.071735675121     0.964249215410     5.104565462257
O     -0.582460924799     2.044916267509     3.879368598085
C     -1.395761391411     2.035593451853     5.061233741952
H     -2.372164779810     2.517798777687     4.842623996703
H     -1.584532894966     0.992179529081     5.402609240652
H     -0.905132263303     2.607307026523     5.881737545814
Pd     0.363924592022     0.219188291755    -0.464965731333
C     -0.409450970291    -1.626741274611     1.742684662327
O      0.690505547044    -1.179471969817     1.147399573454
O     -0.482464111501    -2.392105082745     2.721816728640
C     -1.725370691484    -1.073599156468     1.066538878773
H     -2.509501121563    -1.124268874975     1.832528253653
C     -2.143203863178    -1.914857710831    -0.117787775564
H     -3.068438254090    -1.495130866193    -0.564013385515
H     -1.342480767659    -1.912971482362    -0.884779632602
H     -2.337051370164    -2.958826346829     0.206364621987
N     -1.447876801839     0.279968038790     0.546724697131
C     -2.043097405677     1.366446068570     0.876686281984
O     -1.513421405172     2.548760204873     0.464570207680
C     -3.252962477368     1.382524037923     1.729407349922
H     -4.032414219151     0.776682586095     1.237771343713
H     -2.978282624317     0.978048882297     2.717495234691
H     -3.607130771370     2.420646182955     1.854851641412
N      2.313852988747    -0.019951619170    -1.191810268203
C      2.644364622967     0.248844332612    -2.496975850444
C      3.965418212550     0.251323080207    -2.894434289634
C      4.968890233539    -0.024200503937    -1.995028648623
C      4.618822651375    -0.322450082450    -0.706802907687
C      3.257106741750    -0.333452016581    -0.335343010925
H      1.874053948281     0.454200876745    -3.229126624321
H      4.208751008428     0.473724514189    -3.920637366611
H      6.011162227908    -0.019778318864    -2.303089247061
H      5.350054296988    -0.569703442640     0.037433604728
O      3.057641374242    -0.671493336169     0.918545543878
H      2.077624848122    -0.927307942661     1.195650192664

