# STO-3G

title

0 1
C     -0.287164364140     1.417167338793    -2.132355375658
C     -0.808752851106     2.690364770926    -2.459596133806
C     -1.183024270847     2.993045078944    -3.787580944609
C     -1.053274397485     2.033139909541    -4.806960592653
C     -0.542759542023     0.759248312920    -4.490936472732
C     -0.158871438067     0.456739238118    -3.169839751001
H     -0.306481239656     2.923618048645     0.242661803662
H     -0.949664749988     3.462591141957    -1.708525505337
H     -1.580857200706     3.980359102217    -4.015480898061
H     -1.347614547514     2.270762600853    -5.826721231039
H     -0.441967514013     0.002343456211    -5.266789367676
H      0.240373512156    -0.532696299466    -2.951497092745
C      1.648373342213     2.476680605909     2.056951011128
H      0.741627746575     3.041807159360     2.254085843533
H      2.267928394679     2.822540570877     1.233049004279
C      2.012449392983     1.398968920340     2.787063893544
H      2.923933764913     0.863437796336     2.554115054359
C      1.222760963003     0.823797101886     3.886754643859
O      1.751186105899    -0.057082575219     4.615800907423
O     -0.092389414949     1.276382464757     4.123362639998
C     -0.803458396318     0.591104405826     5.164264040081
H     -1.821617742625     1.021868281150     5.265323824316
H     -0.903108145060    -0.493395823393     4.925768698377
H     -0.280082124975     0.704133666381     6.140903342944
Pd     0.232268305308     0.695128001066    -0.319080398731
C     -0.942455702171    -1.114303160217     1.757525403802
O      0.267919899951    -0.672513381939     1.397689535148
O     -1.192352069424    -2.042084415512     2.547631665961
C     -2.118216834180    -0.302760107231     1.083345074421
H     -2.913411342002    -0.219999514462     1.835893551200
C     -2.667069555321    -1.012946637364    -0.131942120361
H     -3.502408382706    -0.421507829635    -0.560899273990
H     -1.875940433453    -1.115054572023    -0.902197433944
H     -3.040784744752    -2.019775827391     0.149272737229
N     -1.581410362971     0.982067619192     0.620496681748
C     -1.890597272922     2.164584271755     1.021609656648
O     -1.139332079494     3.237231600863     0.695362245383
C     -3.059434393163     2.442461591377     1.866599818335
H     -3.956884190339     2.055681465569     1.355349507223
H     -2.897514820674     1.956280481101     2.843094936360
H     -3.148154788417     3.535323595800     2.009905433369
N      2.230362811372     0.424996305886    -0.870177902062
C      2.808173412017     1.184883009958    -1.857539843989
C      4.131821373879     0.998787271132    -2.196470015972
C      4.894660206235     0.053795910235    -1.552086571270
C      4.309397987596    -0.681826728445    -0.559180178934
C      2.953994785288    -0.464914744402    -0.228461789895
H      2.239761352879     1.950075145709    -2.369442486273
H      4.568838507066     1.602701706820    -2.975118436567
H      5.938026203959    -0.096625678693    -1.816787770599
H      4.853957164298    -1.421936598671    -0.006066389744
O      2.538378473387    -1.209730630598     0.763430673643
H      1.554103933947    -1.095650170089     1.142078118640

