# STO-3G

title

0 1
C     -0.300182866716     1.777682460076    -1.801131769872
C      0.383697242009     3.014507011979    -1.721727865759
C     -0.062930428093     4.128391777006    -2.463834971860
C     -1.190093919624     4.018615890565    -3.300505621053
C     -1.872647477789     2.789259834591    -3.387177299156
C     -1.433728899970     1.675723004285    -2.641059642054
H     -2.147858396835    -0.406295039750     2.850318952914
H      1.259347193444     3.118403718098    -1.082183222346
H      0.468693508952     5.075352642921    -2.385848017297
H     -1.532697773776     4.877202326003    -3.873957102060
H     -2.746434370304     2.696010256269    -4.029819713642
H     -1.980399367894     0.737471926087    -2.712794977091
C      1.435718258159     1.123744633515     2.398697535158
H      1.273586486481     2.194735558298     2.296271080070
H      2.061158123089     0.662013681714     1.642475117468
C      0.913383545646     0.388785031537     3.408299964666
H      1.111682229733    -0.674357954033     3.459058425984
C      0.065796730271     0.934958733105     4.480695774807
O     -0.271443992564     0.184759392987     5.434835049398
O     -0.302307068323     2.295053588281     4.452749387311
C     -1.243300425733     2.701958932204     5.455343452094
H     -1.468566655237     3.782662696483     5.333953650595
H     -2.195839460827     2.132884294051     5.351405892704
H     -0.827668193899     2.544097147717     6.476473778012
Pd     0.295055742929     0.188594029246    -0.745023926789
C     -0.188188603871    -2.094835663913     1.149359472090
O      0.821314256036    -1.525665684129     0.498291288027
O     -0.116781046157    -2.949769777791     2.052927128806
C     -1.566463914047    -1.516331024676     0.668137407557
H     -2.323485967774    -1.758036263260     1.426984975708
C     -2.010876232292    -2.120312066503    -0.643258704963
H     -2.982953127787    -1.676600686358    -0.943834477659
H     -1.261751028566    -1.914101425482    -1.433181274331
H     -2.134146910307    -3.218050025413    -0.532569408742
N     -1.415005137310    -0.057638186527     0.428791939985
C     -1.828310286833     0.789764403627     1.312223564922
O     -2.336858379723     0.503421726483     2.536268126947
C     -1.768147854522     2.218330876165     1.006861781169
H     -2.358074050897     2.400631437126     0.092613692753
H     -2.195362234984     2.785724235140     1.853554451060
H     -0.716656564105     2.507257792094     0.866513451805
N      2.186002309441     0.173089967320    -1.636953980186
C      2.395206598425     0.710342507567    -2.883367791543
C      3.675569281635     0.848538797085    -3.376514064456
C      4.760128722699     0.438858591531    -2.636609632587
C      4.530633743056    -0.129216089797    -1.413642515960
C      3.207531986444    -0.273174183402    -0.944051891998
H      1.558797077364     1.027094344805    -3.493432124523
H      3.823543271869     1.281681690457    -4.352607582602
H      5.771158497276     0.547392721494    -3.020688068772
H      5.330236743209    -0.496179532223    -0.800197010087
O      3.125486876809    -0.879266507588     0.219497316307
H      2.175750801237    -1.259776134868     0.494425556353

