# STO-3G

title

0 1
C     -0.404527974856     1.800731211157    -2.050908110857
C      0.285758019662     3.026265158902    -1.930551902408
C      0.234179477844     3.964722679102    -2.983462477554
C     -0.491990936172     3.677642531270    -4.155015967735
C     -1.176656664015     2.451706342497    -4.269917534881
C     -1.138246051230     1.511018956000    -3.219705812128
H     -1.912844129141     0.454235955695     2.117024569213
H      0.854657379585     3.259816378372    -1.032271285218
H      0.759785072919     4.912584768140    -2.884177520268
H     -0.527530889205     4.401214945136    -4.966322385114
H     -1.745778010362     2.227462360355    -5.169995891946
H     -1.690813719313     0.579342701360    -3.306159212272
C      0.302905431418     2.231345698747     2.487844130355
H     -0.379210210545     2.111676987645     3.324945115858
H     -0.147674812093     2.554092187048     1.554671975027
C      1.623190035219     1.958577313462     2.549151962590
H      2.235120257294     2.057578878991     1.660412217042
C      2.329436406810     1.449598125187     3.734773775673
O      3.576771868021     1.277251140955     3.668077282462
O      1.631796078881     1.273964379374     4.944811792355
C      2.394645442278     0.739566636116     6.035105803757
H      1.738631051423     0.635398179825     6.925787986958
H      2.795189812821    -0.267539477731     5.778790162463
H      3.236902344334     1.418305676264     6.299165583720
Pd    -0.417209177366     0.510314611872    -0.537922345755
C     -1.641372269886    -1.706970011751     0.994620125619
O     -0.743706671656    -0.731668748713     1.318022865470
O     -1.591851550921    -2.886159444920     1.368291494126
C     -2.805654712021    -1.117762787467     0.122560417564
H     -3.708058716857    -1.151929623304     0.755060269522
C     -3.056597811832    -1.941241836978    -1.116318379791
H     -3.928885758344    -1.529127158273    -1.665581330849
H     -2.168405034194    -1.904094539933    -1.777939477814
H     -3.270501184823    -2.995626691923    -0.841564102806
N     -2.587150760077     0.274265682436    -0.344475862898
C     -2.597663223318     1.277613843855     0.508481012186
O     -2.529889922773     1.200608878771     1.862175476027
C     -2.851462497794     2.621534660141    -0.019474416592
H     -2.992614807302     2.570782667475    -1.115141892197
H     -3.776250015468     2.991374445589     0.455452403622
H     -2.006275187609     3.280660223083     0.234025693334
N      1.648915100910     0.135574912303    -0.652139713927
C      2.375967343366     0.428380041528    -1.781312658405
C      3.740732659236     0.235904718497    -1.804008559141
C      4.397464110412    -0.262404985907    -0.704037178640
C      3.655965533253    -0.588703039771     0.395966358581
C      2.258081085460    -0.397749842835     0.387182755059
H      1.891185310802     0.808975715004    -2.669780090944
H      4.296770883681     0.482496289073    -2.694008435554
H      5.474909148535    -0.405491473040    -0.712829399358
H      4.106941110050    -0.986776631378     1.285300832721
O      1.678517465825    -0.780216744297     1.493674442563
H      0.614722858547    -0.813731430829     1.534700997799

