# STO-3G

title

0 1
C     -0.399511505724     1.725942263940    -1.903727650579
C      0.429956481210     2.865537749095    -2.032387041510
C      0.033136200182     3.951550391234    -2.841171876464
C     -1.189926235941     3.908786665851    -3.537513738783
C     -2.018664886201     2.775996709036    -3.415907760020
C     -1.629065278766     1.691802292852    -2.602361323499
H     -1.892120575141     0.261782243627     3.137001923132
H      1.379772166314     2.916117415617    -1.501671793692
H      0.677427922842     4.825358020474    -2.923519926684
H     -1.494302815156     4.745704776840    -4.162302809656
H     -2.967300733340     2.735958505309    -3.948497675954
H     -2.287707158021     0.830356622802    -2.510714090694
C      1.720828856689     0.634951141243     2.576311538409
H      1.488657341593    -0.263896679749     3.144571873569
H      2.294552263898     0.477230706721     1.668897710634
C      1.332489197330     1.878191946138     2.939173556887
H      1.583265286733     2.721926955709     2.308721547775
C      0.551413290178     2.203106272745     4.142885881747
O      0.203114111162     3.400521996257     4.328369407574
O      0.258822969244     1.198947644226     5.083439517861
C     -0.655129763883     1.568135280876     6.124223103107
H     -0.820622148355     0.696507320005     6.792826765813
H     -0.245821777246     2.404777634976     6.734154444157
H     -1.638505192989     1.865868300313     5.693132567093
Pd     0.120322556666     0.177482211362    -0.751876653925
C     -0.406410101604    -1.826276955584     1.428120801649
O      0.575135254608    -1.472873966936     0.603303728169
O     -0.327198559514    -2.581773335121     2.416551864984
C     -1.752795430350    -1.120978782337     1.035562541189
H     -2.437497928708    -1.182334241401     1.892695157153
C     -2.420987262019    -1.785798070547    -0.144925710152
H     -3.361621564602    -1.248773435031    -0.387758460604
H     -1.753005256385    -1.758089150650    -1.028583595139
H     -2.660975223594    -2.841609991206     0.100192523375
N     -1.454450613471     0.273696757286     0.619278088010
C     -1.645766945453     1.248988576125     1.444754383804
O     -2.023747980128     1.150714632817     2.744062441508
C     -1.448391244456     2.620325026651     0.978182443011
H     -2.119283867060     2.793118849722     0.119612881777
H     -1.695581708947     3.320535472214     1.797737869264
H     -0.393933814490     2.748118738907     0.692061823716
N      1.887942201850    -0.153526626479    -1.816011850615
C      2.021287598076     0.234981430274    -3.126363787640
C      3.250580789284     0.176312223872    -3.748563913406
C      4.356985301313    -0.284037373704    -3.073537881560
C      4.197571023059    -0.703365997558    -1.781206318108
C      2.923020012233    -0.646693231056    -1.177683231360
H      1.163636776528     0.587500609690    -3.685339168801
H      3.340941837515     0.495518344969    -4.774331136620
H      5.328290481927    -0.329624221878    -3.559293524754
H      5.013736846719    -1.099548532800    -1.209327726501
O      2.898570536761    -1.124359270571     0.046724245302
H      1.947669673334    -1.359233741057     0.446432206044

