# STO-3G

title

0 1
C     -0.503205997261     1.639914201040    -1.301944731856
C     -0.034705516155     2.936657608617    -0.983101423256
C     -0.303047114332     4.030012764449    -1.832037764090
C     -1.039965855897     3.845815329813    -3.019168842854
C     -1.506049859187     2.558222402426    -3.348070015229
C     -1.239217879421     1.463983948041    -2.496919192957
H     -3.258925170020     2.527662408857     0.824702558715
H      0.532292986514     3.104040747987    -0.068709152411
H      0.061823462850     5.020674421199    -1.564642019149
H     -1.244570498787     4.689044799984    -3.675524165103
H     -2.073238217773     2.402057578057    -4.264506986602
H     -1.610240786335     0.478214626957    -2.772522129279
C     -0.173664094039     1.335933089211     2.739477298881
H     -0.395461790825     2.094431864532     1.995278643962
H     -0.988682950037     0.653228273908     2.965461901404
C      1.029344439195     1.186988225882     3.337787350968
H      1.192845016259     0.385872440083     4.044430341188
C      2.214665580047     2.007141805568     3.041773111412
O      3.269245046078     1.822110288662     3.706220762359
O      2.167427912474     2.949058288756     1.995766644743
C      3.404455551208     3.604449669144     1.686508497502
H      3.245920050663     4.309895635175     0.843206208468
H      3.775320081163     4.182734313503     2.562848930426
H      4.175858346962     2.862915279592     1.378497913858
Pd    -0.141844525664     0.075573341762    -0.103572554034
C     -1.103550690835    -2.386320414128     1.274498735551
O     -0.010494273840    -1.633756580096     1.214070988648
O     -1.268803480840    -3.431734597043     1.930111138405
C     -2.278274059740    -1.807546302455     0.389158550084
H     -3.212253799313    -2.160610828878     0.845223519877
C     -2.207029573372    -2.312506351155    -1.033602173639
H     -3.043795287123    -1.883624045546    -1.622922888415
H     -1.247644862821    -2.005859097628    -1.497571797800
H     -2.282609819554    -3.420085938985    -1.048627788907
N     -2.131045288523    -0.340301079686     0.326413507087
C     -2.979580879852     0.538126369289     0.714433866045
O     -2.577197069130     1.831687321399     0.804800978638
C     -4.357083816569     0.184697914313     1.126015111123
H     -4.846847474698    -0.334230778555     0.284483395340
H     -4.299702271888    -0.454316749010     2.023112114307
H     -4.921227382485     1.101358415564     1.373685741622
N      1.937295130920     0.189292650201    -0.369936131009
C      2.497362369897     0.853188101581    -1.433689193528
C      3.864343431402     1.027971269666    -1.507562643910
C      4.687504108475     0.536548059831    -0.522116649602
C      4.116105415187    -0.143390616774     0.516675139119
C      2.716121098935    -0.321175993845     0.554518747688
H      1.878552304525     1.233445620315    -2.235262993930
H      4.285496203508     1.555362619446    -2.347627808061
H      5.763947747409     0.677425381671    -0.571339547412
H      4.700165439893    -0.555432914831     1.316671218590
O      2.308406049064    -1.014391238687     1.591136961278
H      1.320857806370    -1.360463658319     1.590566788360

