# STO-3G

title

0 1
C     -0.070968167815     1.717905005818    -2.013555751772
C      0.708859989122     2.843435150134    -2.374738454935
C      0.423955668020     3.583928643923    -3.541314158626
C     -0.644280964348     3.213922699853    -4.381826545790
C     -1.426785886912     2.094449971576    -4.039500055605
C     -1.143868424339     1.358821357540    -2.868669051982
H     -2.101100411309     3.758175365452    -0.045470501562
H      1.532900685334     3.154051307834    -1.739198970588
H      1.038718698606     4.447937436183    -3.791843372796
H     -0.858862171148     3.783022520278    -5.284042959102
H     -2.253568518157     1.791414171397    -4.680405787802
H     -1.770898899906     0.502196557542    -2.629715296935
C      0.731673743985     2.561450509145     2.165087913035
H     -0.246353362965     2.807269300182     2.570238567288
H      1.011133354539     3.088467814585     1.258829385341
C      1.522860621672     1.599491470097     2.687587164933
H      2.467099473304     1.364353728620     2.213984192100
C      1.169446381960     0.737992756240     3.823648706348
O      2.070026069121     0.027075028103     4.346588878561
O     -0.120308015341     0.815138718860     4.387215142941
C     -0.409219065538    -0.155424376989     5.402898940025
H     -1.452220662653    -0.019401790226     5.758273998171
H     -0.313395190507    -1.189229584839     4.997051114366
H      0.276003091818    -0.035462402950     6.272197038563
Pd     0.264014283442     0.583588514115    -0.377405510708
C     -0.794310655808    -1.268222364210     1.634824456569
O      0.382450873964    -0.855770517022     1.202441653283
O     -1.027309331776    -2.128268148327     2.518803669079
C     -2.040657832644    -0.587912167326     0.915516128898
H     -2.850631041633    -0.555607908323     1.655716602663
C     -2.494962275345    -1.400433064295    -0.275947431320
H     -3.357531876303    -0.900599468021    -0.762674365318
H     -1.666294884263    -1.485524531123    -1.007699826574
H     -2.799538396380    -2.416567650743     0.051220362518
N     -1.631937783640     0.732294534877     0.397351469274
C     -2.204422801710     1.860238884379     0.600762958085
O     -1.554247530597     3.004970074164     0.246698647322
C     -3.502933047802     1.975516637599     1.299315136643
H     -4.247233251242     1.375197437675     0.749786913906
H     -3.368287768933     1.617423652677     2.334124607948
H     -3.815967492717     3.034386105372     1.322573130908
N      2.223998035275     0.222963009453    -0.859170413855
C      2.462203696271    -1.040945973241    -1.327358611551
C      3.760268997600    -1.466640441250    -1.531183934555
C      4.820137221492    -0.631229676955    -1.255426187512
C      4.551762419721     0.628679749784    -0.780529121994
C      3.199138590734     1.011385526117    -0.591638169531
H      1.630855205422    -1.702827385166    -1.540773388890
H      3.938811565375    -2.464468445051    -1.897177669716
H      5.843393389901    -0.963816920549    -1.409918775913
H      5.346153033541     1.309586778601    -0.558014851647
O      2.937672896230     2.249505476916    -0.111056857423
H      3.700391331144     2.739831697211     0.242648500618

