# STO-3G

title

0 1
C      2.498512065857     1.138730373012     1.424659872361
C      3.427884023804     0.990480244464     2.493211383137
C      4.297653787863     2.036275613723     2.865118450021
C      4.273944401280     3.260138009796     2.169141956593
C      3.375512208270     3.429567412984     1.097827427836
C      2.499813172186     2.386000452720     0.735232480174
H      0.931016209078     1.509844868469     2.704777144389
H      3.492681411144     0.042455258488     3.022477490081
H      4.995220793018     1.889743903749     3.687146421099
H      4.947925807385     4.064865319588     2.452370783137
H      3.353890686446     4.367773652247     0.547567935908
H      1.805639840969     2.545149799549    -0.087374231384
C      1.067947791173    -1.397927718315     4.040648593513
H      1.604292833959    -2.343665688707     4.073430653448
H      1.639382055606    -0.514069559832     4.314518575451
C     -0.227378767066    -1.289831017084     3.667329598329
H     -0.690484043733    -0.313866506008     3.644022801061
C     -1.092874195041    -2.399637867986     3.242036631997
O     -0.678161710930    -3.589103967200     3.316538645031
O     -2.397166076621    -2.101773377624     2.808564114087
C     -3.123378321669    -3.195837889438     2.231141043371
H     -4.120603690852    -2.840887042898     1.894260322529
H     -2.586904278016    -3.598251165009     1.340617470895
H     -3.271822837618    -4.011244582663     2.974446361676
Pd     1.176116535018    -0.336398613709     0.868922634725
C     -1.363686339138    -1.175771307721    -0.270909924444
O     -0.273372670281    -1.719550599746     0.263487954726
O     -2.328352307029    -1.789522689737    -0.777478890986
C     -1.385748437717     0.405919130731    -0.222941354062
H     -2.435881208322     0.706462726146    -0.114456001953
C     -0.830570536630     1.009939754285    -1.492777013825
H     -0.856357557188     2.116940843152    -1.422380886993
H      0.218443382958     0.681883318838    -1.639461761454
H     -1.438759760519     0.687182784627    -2.363826048682
N     -0.508829616946     0.849854870173     0.881510103984
C     -0.805527805530     1.657471849235     1.841963844851
O      0.034668029320     1.918272460773     2.858376479144
C     -2.112250571799     2.326810706166     1.937069219580
H     -2.267069707966     2.923369058650     1.022772786465
H     -2.888572151502     1.552758737023     2.061671541271
H     -2.114070226503     2.992968327575     2.820252373800
N      2.599873142809    -1.830105995015     0.729179415584
C      2.183731669944    -3.086886745853     1.092689924657
C      3.004939531219    -4.174935895253     0.870824706021
C      4.233262969457    -4.016007643548     0.268771952988
C      4.617713254949    -2.751767443599    -0.094754817249
C      3.751771969096    -1.670341003281     0.157291526590
H      1.226731740605    -3.229156171853     1.574292698543
H      2.668036177435    -5.155542137245     1.166904152493
H      4.878898715133    -4.870860313738     0.085797541345
H      5.557121263545    -2.556811643362    -0.572246115416
O      4.214766791069    -0.492957265052    -0.246216239696
H      3.616906850655     0.247176997156     0.050594398350

