# STO-3G

title

0 1
C     -0.529768853313     1.703871897118    -2.113837183966
C      0.221348515844     2.898251874693    -2.225858636074
C     -0.190300981104     3.921790801637    -3.105535520765
C     -1.348627421242     3.760877705684    -3.889790816607
C     -2.098066354092     2.572498389073    -3.785912360854
C     -1.694221164956     1.550357300028    -2.902040154132
H     -2.333431077922     0.344736091263     2.864012542681
H      1.121414462285     3.039370238953    -1.628883216655
H      0.392882326316     4.838485178105    -3.175277952403
H     -1.663837675852     4.549544790279    -4.569517329699
H     -2.995970209083     2.440907223166    -4.387206400653
H     -2.291821689851     0.643934798655    -2.826363550019
C      1.436673733055     1.152147909893     2.253587718400
H      2.344033544230     0.560871267528     2.345764969329
H      1.123288884702     1.356044852109     1.231960439969
C      0.708898522977     1.578210425446     3.310820895628
H     -0.199626753757     2.143618191186     3.152839571299
C      1.052943963282     1.332241792974     4.721677112690
O      2.135202027955     0.756890215267     5.018579128398
O      0.202364104714     1.841986774777     5.718972235502
C      0.586471444034     1.561967067894     7.072397440101
H     -0.160864331813     2.003506802975     7.765957946737
H      0.622532336047     0.463472103680     7.253056926777
H      1.581231312899     2.007112410937     7.301568830613
Pd     0.010140020331     0.241324824733    -0.862070234017
C     -0.534572583121    -1.735784397540     1.336539320898
O      0.480701378356    -1.311880049997     0.588455968172
O     -0.487825478880    -2.499408682416     2.318239528912
C     -1.894578936546    -1.121564740968     0.841717635945
H     -2.622296404363    -1.200559329999     1.660959452346
C     -2.451389149315    -1.864647502476    -0.350005184713
H     -3.406152073504    -1.394871888244    -0.666065206872
H     -1.734313031275    -1.826120861946    -1.193892981078
H     -2.642756699276    -2.924461187897    -0.080231997855
N     -1.661039350322     0.274839852654     0.392804504017
C     -2.001407127702     1.266447496117     1.147197716002
O     -2.497613567501     1.197506157181     2.408690544222
C     -1.861780018039     2.629068099355     0.633199118747
H     -2.442108413732     2.705092527263    -0.302329610922
H     -2.265125926393     3.339427550703     1.377429019680
H     -0.795118151254     2.838871815269     0.460442931624
N      1.870576824130     0.007430868058    -1.777980876851
C      2.073214283188     0.346919643806    -3.092871212344
C      3.346644671382     0.355857443895    -3.621609988675
C      4.429943689877     0.012123722325    -2.846897817731
C      4.205084502780    -0.360476476669    -1.550158642546
C      2.888389733526    -0.376359969208    -1.042247018212
H      1.236345585897     0.607977837084    -3.728363607147
H      3.490453411717     0.634950623060    -4.652905072295
H      5.435775737021     0.019488546529    -3.258825329527
H      5.002634320026    -0.667456358780    -0.901906635014
O      2.807882585903    -0.802529472407     0.196831959112
H      1.850099114551    -1.088057746965     0.542886670416

