# STO-3G

title

0 1
C      0.005691621407     1.985921873322    -1.249026736164
C      1.000622947422     2.832916626977    -0.704673781455
C      1.092830188112     4.180545060371    -1.111025649552
C      0.199977685149     4.694395696513    -2.071322730873
C     -0.790251421335     3.854951799863    -2.618557876750
C     -0.890226969081     2.508569058937    -2.209626634918
H     -3.250746617843    -0.514446510796     2.329932447306
H      1.695988724941     2.449642097734     0.041520979051
H      1.858312337060     4.822247090700    -0.678665096361
H      0.272512452096     5.732927787290    -2.386800745233
H     -1.486160839058     4.245355320856    -3.359129363921
H     -1.668729914935     1.877517699841    -2.633647601962
C      0.397269379844    -0.499734748925     2.726120409730
H      1.113253515676    -0.223800401626     1.956193195515
H      0.010098756892    -1.512533467565     2.655221035921
C      0.002326252131     0.342788553810     3.706638308139
H     -0.724795028105     0.022543148408     4.440611007563
C      0.487164045617     1.722983270181     3.858851900139
O      0.036705730934     2.428415298338     4.799477084159
O      1.343709841363     2.270879322790     2.882473376663
C      1.692587205730     3.650954554487     3.059948468910
H      2.374901372196     3.968262166796     2.242691161467
H      0.784647723837     4.295259400019     3.025348326363
H      2.217691691233     3.804509425195     4.030249745795
Pd    -0.154992070371     0.083688655905    -0.660239304916
C     -1.660738817118    -2.246993380366     0.497880495874
O     -0.424455509829    -1.952299656172     0.105244557205
O     -2.012892998025    -3.189954455501     1.235569966339
C     -2.685598452384    -1.184106456412    -0.028815354498
H     -3.632244970023    -1.310334223550     0.513984124389
C     -2.964595177514    -1.334330991488    -1.505564840684
H     -3.682983752255    -0.551511889473    -1.826972383302
H     -2.027719316461    -1.221827154637    -2.086447169452
H     -3.404191577831    -2.333191287821    -1.708612360867
N     -2.087225699028     0.164929947171     0.153339223777
C     -2.400588705865     0.861828632516     1.197157009465
O     -3.165390414969     0.458993860008     2.241216156475
C     -1.922799598958     2.239878488764     1.295010948760
H     -2.273878995577     2.790291760104     0.405878838933
H     -2.330546317941     2.700870530863     2.213003431373
H     -0.824756365918     2.229086054627     1.342472595861
N      1.800226564572    -0.359693899089    -1.246968680832
C      2.417383988070     0.338352649461    -2.255449413032
C      3.759129915575     0.150587773821    -2.512775503705
C      4.496267035313    -0.744434109235    -1.772981363772
C      3.856747474288    -1.457549639261    -0.796474952791
C      2.478753527608    -1.254931400479    -0.568109146167
H      1.856828321799     1.038840217128    -2.861666411331
H      4.231263005450     0.713739392305    -3.301418636515
H      5.554736602836    -0.893380397579    -1.970046223714
H      4.367812396838    -2.189411339098    -0.202165011600
O      1.979888597356    -2.037180164979     0.362308823473
H      0.929089648712    -2.124760004883     0.393167106706

