# STO-3G

title

0 1
C     -0.374625706545     1.662003260489    -2.192629452698
C      0.442343965923     2.776217662019    -2.501189867194
C      0.160156236269     3.581501632939    -3.625143036920
C     -0.933148445759     3.279069163450    -4.459326190905
C     -1.747453214619     2.168946898526    -4.160695677366
C     -1.473052740702     1.366478541761    -3.033939818158
H     -2.636037013818     1.526836980177     2.766380139882
H      1.294836620746     3.024735024748    -1.870167314466
H      0.792822988812     4.439994809467    -3.844625679019
H     -1.148462268401     3.899267645706    -5.326744362198
H     -2.595807327734     1.928816160428    -4.799310741472
H     -2.119737344538     0.519514343914    -2.812966302990
C      1.012650756440     2.102334634923     2.388811774164
H      1.836041956760     1.419939151559     2.199851986306
H      0.825605144340     2.836922544678     1.609914745616
C      0.248785430668     2.052128210444     3.504564776917
H     -0.563313120032     2.756131504262     3.637889917746
C      0.435096097170     1.083856876059     4.596957717888
O     -0.314626373722     1.157926550486     5.607148993007
O      1.507488766087     0.174478918215     4.547639431473
C      1.500591401770    -0.849081193800     5.551187998202
H      2.376252817007    -1.515540279765     5.400771670951
H      1.566078839495    -0.406774415100     6.570733380263
H      0.577502563860    -1.468242329114     5.471302453382
Pd    -0.023852362262     0.499468610828    -0.603894613883
C     -0.864681045980    -0.932169704966     1.900373466409
O      0.227344842883    -0.742143666744     1.166457808184
O     -0.934555138731    -1.448919248496     3.031463273301
C     -2.140772860873    -0.380499679881     1.171228230161
H     -2.928290261418    -0.240430768584     1.924349574446
C     -2.658068309496    -1.345161673501     0.129627164285
H     -3.557997333170    -0.915760230535    -0.358117404486
H     -1.882757151928    -1.526334704138    -0.641130502538
H     -2.932124349647    -2.308892622222     0.607794536269
N     -1.791938153779     0.867958022717     0.445208665059
C     -2.149381444740     2.016244774595     0.917573998984
O     -2.739523010949     2.253597825550     2.115901430719
C     -1.939020910205     3.215496139599     0.106380970809
H     -2.459510676168     3.073359418211    -0.856205303550
H     -2.365439102435     4.087752184411     0.634018200187
H     -0.860187450796     3.363240828951    -0.044699725309
N      1.895755728935     0.004787600419    -1.261968348488
C      2.237223343285     0.051557610558    -2.591086381640
C      3.553698312768    -0.087785059926    -2.977450371757
C      4.541174189451    -0.291450692360    -2.041891142510
C      4.177385457245    -0.375742178253    -0.726044563751
C      2.819452312596    -0.245609265921    -0.363464921212
H      1.477646876448     0.195687728803    -3.349061245521
H      3.807023395472    -0.037374351124    -4.024064139822
H      5.580274299574    -0.400471541694    -2.341548149066
H      4.893669002372    -0.563174112653     0.049882355948
O      2.600737270451    -0.399803223024     0.922443831380
H      1.598253118503    -0.584802157062     1.217709293869

