# STO-3G

title

0 1
C     -0.870403872727     1.988208950415    -1.056830309838
C     -1.002543054429     2.066560144748    -2.463592274813
C     -1.427506946335     3.260627996252    -3.077262430911
C     -1.711789591188     4.401584343207    -2.298851579824
C     -1.567326942081     4.339072316945    -0.902579396462
C     -1.149875876650     3.139607356309    -0.281626612959
H     -1.017842525582    -1.639317115496     1.998861558416
H     -0.781801183205     1.200372576550    -3.082970621136
H     -1.533135189948     3.300488583351    -4.159313156335
H     -2.035916090716     5.323399294658    -2.775234098491
H     -1.775390808265     5.212151078054    -0.287715093508
H     -1.060455583593     3.127015511056     0.804389649126
C      2.054940062139    -0.342748457902     2.384358431445
H      3.112751165244    -0.123502511001     2.243118265776
H      1.725655438199    -1.346222439719     2.134097396528
C      1.159417841233     0.596816036233     2.761942028222
H      0.116339160995     0.334218200805     2.848718218633
C      1.478129904889     2.010207556296     3.005036290030
O      0.528687548737     2.840937847563     2.996556633069
O      2.819911470575     2.430923757962     3.048258327804
C      3.032226053995     3.848948545590     3.061312743588
H      4.123016221590     4.056385750143     3.100873121719
H      2.625559138165     4.314926202961     2.134701328147
H      2.556034856550     4.313950996329     3.953995479438
Pd    -0.400570251552     0.203628173495    -0.266494043837
C     -0.945395687065    -2.616372629946    -0.168078242393
O     -0.074823966046    -1.834466265813     0.516268754600
O     -0.695254270447    -3.736944206785    -0.646805720292
C     -2.374642686029    -1.951413599382    -0.265342095903
H     -3.040985853199    -2.557056129480     0.370434157543
C     -2.915959259472    -1.948541094044    -1.672829460700
H     -3.948815432319    -1.541626599217    -1.670988759213
H     -2.283415475052    -1.305472628212    -2.316229630235
H     -2.935670196094    -2.980934827892    -2.080459796826
N     -2.408959988732    -0.540774091623     0.194454424027
C     -2.237728865517    -0.246865190094     1.466534598982
O     -1.729678035926    -1.059562688156     2.425182805930
C     -2.745516980682     1.039087629702     1.950530958353
H     -3.177949260043     1.607259420381     1.106429772208
H     -3.532560512376     0.819514056239     2.691724893702
H     -1.925320500852     1.594778177368     2.434566832578
N      1.601249699102     0.322916348170    -0.789047467887
C      2.139857051059    -0.860250747707    -1.230037311127
C      3.505302122459    -0.976280400456    -1.395708656181
C      4.337318988885     0.084674890897    -1.115179983691
C      3.770790166739     1.254240593785    -0.681720948142
C      2.372531253083     1.330578263076    -0.532251515377
H      1.497373977975    -1.697851029720    -1.471190666032
H      3.918215112489    -1.911138241523    -1.739441756559
H      5.413951167582    -0.004046925895    -1.234337138148
H      4.359861880314     2.114919531127    -0.434801729892
O      1.944323475373     2.501541973260    -0.079915499905
H      0.955058588362     2.576823649935    -0.079204881974

