# STO-3G

title

0 1
C     -0.100772541376     1.831330371681    -1.782631393453
C     -0.183761031173     3.208047559662    -1.473000779143
C     -0.403668974556     4.159694148726    -2.493272888087
C     -0.550939196323     3.755649848978    -3.832368688120
C     -0.476550500813     2.385666353518    -4.150055470854
C     -0.248620709165     1.433708871991    -3.136536577539
H      0.161079766728     2.080660803598     1.147451887408
H     -0.096408289548     3.569092151374    -0.452473593036
H     -0.464202751812     5.214778471302    -2.232182729991
H     -0.724098613775     4.492816908152    -4.613203523818
H     -0.594314895588     2.055928840070    -5.180792036447
H     -0.186797237068     0.380642269117    -3.407465661276
C      1.793271733275     0.102495916453     2.171868986967
H      1.027459320132    -0.666552741590     2.227010255247
H      2.559020013344    -0.059019813512     1.418140155004
C      1.817340257688     1.197158266530     2.970027125206
H      2.605273197135     1.930033391604     2.860881024910
C      0.826866805055     1.495622561494     4.019487938214
O     -0.153122270728     0.720796246464     4.209391484228
O      1.028298905456     2.627176957029     4.830817793201
C      0.013793656893     2.882647563189     5.811642005919
H      0.278460939599     3.797209585428     6.384467658592
H     -0.972281130163     3.051048617116     5.322629501185
H     -0.066414447656     2.033746841453     6.528043742871
Pd     0.139153151361     0.289161300659    -0.505169399249
C     -1.517672884182    -1.893837977331     0.646502912770
O     -0.210419283282    -1.613787838318     0.527251640954
O     -2.016183038252    -3.008973759467     0.875093685129
C     -2.438987541390    -0.621756143873     0.470128500269
H     -3.218687675749    -0.694612837337     1.240346827182
C     -3.097854020018    -0.591380348084    -0.889285344413
H     -3.754348964228     0.300383388601    -0.962390175730
H     -2.327399631141    -0.527468289537    -1.683796827171
H     -3.709063105764    -1.505986225587    -1.039289750365
N     -1.597807353854     0.579080844154     0.565453850890
C     -1.663230941800     1.521573709471     1.440774852023
O     -0.662007495146     2.410465596573     1.602266722485
C     -2.821160831597     1.709254837247     2.325909651043
H     -3.728711363409     1.779499362786     1.703739900843
H     -2.857651891314     0.854206725747     3.022558094009
H     -2.683379369690     2.641424726788     2.903617250642
N      2.029517927825    -0.202485612779    -1.268465460171
C      2.798743259639     0.716508053194    -1.940082141764
C      4.035544079663     0.361518504109    -2.436033527580
C      4.521204412353    -0.912869138091    -2.264715959693
C      3.752664525903    -1.809999498882    -1.576323014147
C      2.492478599067    -1.418087336461    -1.074580537388
H      2.456267061800     1.733664644047    -2.073961031443
H      4.624602013255     1.095124032361    -2.962331242377
H      5.495128424108    -1.196253415879    -2.655252979398
H      4.081781904133    -2.814225102282    -1.393601108785
O      1.887252070586    -2.365664759722    -0.405170137654
H      0.942596433284    -2.180753529356     0.048524561859

