# STO-3G

title

0 1
C     -0.368309590528     1.908363391118    -1.847188475507
C      0.533256379298     2.982471012994    -2.042522170874
C      0.162900939478     4.108096361457    -2.807865160142
C     -1.113082438641     4.175887432222    -3.400182337725
C     -2.018900410633     3.113330431585    -3.213469592719
C     -1.651867423297     1.991958180570    -2.440464539315
H     -1.905076166951    -0.036133901390     3.044739150630
H      1.524107615454     2.951993121320    -1.590624187476
H      0.868738015303     4.927244339821    -2.937666378196
H     -1.397821759884     5.043180594192    -3.992073887859
H     -3.010353031543     3.158928868923    -3.661112039428
H     -2.372847144795     1.190289222315    -2.292934667839
C      1.462161884349     0.309393218612     2.478491469050
H      1.668238639690     1.253923494579     1.977767903369
H      1.676302737618    -0.577126996261     1.891283307483
C      0.904655880204     0.228439348828     3.708834572410
H      0.711311708971    -0.743583354814     4.143877120958
C      0.505716182944     1.385854325656     4.527088879440
O      0.695745279369     2.558391437468     4.097229468033
O     -0.003945568376     1.155712280344     5.817530165885
C     -0.448158045259     2.318217538921     6.529926121045
H     -0.837895892273     2.012872431438     7.524517671506
H      0.392268771873     3.031410155872     6.687802157247
H     -1.269471811763     2.827668480820     5.976181676776
Pd     0.133615146285     0.262103558687    -0.809870433261
C     -0.450160846234    -2.072413777835     0.889906992908
O      0.553776558585    -1.601117787815     0.173279583234
O     -0.453247270551    -3.086050359393     1.630368890700
C     -1.772708620725    -1.206553020110     0.771118229446
H     -2.371913256856    -1.377188982140     1.676386730960
C     -2.601231409082    -1.616854273766    -0.423972033359
H     -3.517504032841    -0.992341014739    -0.471314901968
H     -2.017361281778    -1.472526187350    -1.354832815225
H     -2.893681704956    -2.683928460103    -0.334527409383
N     -1.411883727466     0.213675917358     0.556813305580
C     -1.577190139290     1.104788209771     1.476330412749
O     -2.022103499432     0.889051786121     2.742660350224
C     -1.261172735278     2.499690042022     1.172718531772
H     -1.909854781648     2.829953895204     0.344749853481
H     -1.447250023013     3.114803520233     2.071825001890
H     -0.196056140180     2.570333851354     0.899616059892
N      1.832995567653     0.073422669647    -1.937683451086
C      1.750481467256    -0.191225057168    -3.277950423303
C      2.898198745481    -0.467344083294    -3.995244551676
C      4.127961917795    -0.472352880777    -3.372404468020
C      4.181009505557    -0.186694732500    -2.030479205596
C      2.972215834142     0.087550877604    -1.345009648908
H      0.785012210701    -0.191729209465    -3.770864091699
H      2.825594166832    -0.680243758659    -5.049466566660
H      5.034000023223    -0.684743815299    -3.934239874725
H      5.115696536405    -0.146643367311    -1.510815187423
O      3.028925394888     0.428285706203    -0.042883246423
H      3.797420834522     0.103647283629     0.459668950035

