# STO-3G

title

0 1
C      2.536029575842     1.379275096149     1.663079671767
C      3.806089119235     1.530418863191     1.040497557858
C      4.606138247375     2.665438063198     1.274863932201
C      4.165185928699     3.676219146844     2.151687770253
C      2.917160811493     3.538828679824     2.785530594291
C      2.108907745569     2.407320042452     2.541546871994
H     -1.273233601392     0.971366306996     3.775334041080
H      4.176535929017     0.759548401828     0.368375912568
H      5.571333867176     2.755388647294     0.779820897052
H      4.784801255080     4.550344645245     2.339002621527
H      2.566473022954     4.309234062588     3.470294289595
H      1.147497797334     2.326940303476     3.035653610117
C      0.581771637158    -2.888682912184     3.664965958573
H      0.590985853651    -3.972845993297     3.736901300369
H      1.385101876045    -2.360392200246     4.173712382463
C     -0.339000085860    -2.204072576720     2.950081414450
H     -0.257917454660    -1.130582374173     2.890487933398
C     -1.431847945246    -2.806095037173     2.169262672661
O     -1.605642677466    -4.055631221944     2.187437277628
O     -2.360195983843    -1.951246859470     1.541946175906
C     -3.314521569263    -2.598992209355     0.688306501470
H     -3.976465146156    -1.838273081398     0.223806805675
H     -2.797556591004    -3.149090333206    -0.132218807809
H     -3.947589383093    -3.309325217450     1.266971388742
Pd     1.384607414516    -0.160509119735     0.984155019006
C     -0.642398631921    -0.928262923785    -0.952600184468
O      0.246966185028    -1.537988572737    -0.179947495720
O     -1.318376820256    -1.433800884364    -1.876767344996
C     -0.848158983862     0.620026245448    -0.619749421596
H     -1.900637774536     0.854675591255    -0.826250102449
C      0.031157201118     1.505643892486    -1.470071488436
H     -0.148541508548     2.568424721430    -1.206080441599
H      1.099319263038     1.271820487127    -1.286978598360
H     -0.200350525912     1.352513609120    -2.544793953836
N     -0.426259906195     0.815474150719     0.779038460320
C     -1.175407683485     1.118654795853     1.771520109974
O     -0.645241492152     1.073668942714     3.035158560181
C     -2.582595944835     1.542086565756     1.606389360485
H     -2.607325489657     2.404759556392     0.919224270637
H     -3.152711544003     0.684163308843     1.210114375908
H     -3.000947470482     1.840742086092     2.583675562622
N      2.877827374548    -1.552062761293     1.225188680486
C      3.059956029603    -2.477218637600     0.229549971544
C      3.884817621917    -3.563943915896     0.445209639180
C      4.511000477039    -3.738572400021     1.660555965156
C      4.300759655003    -2.802599244460     2.639952020652
C      3.456560332662    -1.708184164910     2.373975624123
H      2.583229333560    -2.344128340392    -0.734134973843
H      4.023271284008    -4.286575658055    -0.342496791195
H      5.151943195296    -4.598045961643     1.838445688016
H      4.748151948881    -2.882050745393     3.610531240391
O      3.282879726650    -0.882102020351     3.402451961734
H      2.751985274983    -0.082039693007     3.125890791350

