# STO-3G

title

0 1
C     -0.151968483546     1.946343535883    -1.419488379359
C      0.811231840931     2.981548744098    -1.531261376999
C      0.529916312815     4.165967913730    -2.246586638161
C     -0.715547842259     4.338965957226    -2.877367812778
C     -1.684151857091     3.320259313034    -2.779213058440
C     -1.407449295599     2.144300348023    -2.054478032763
H     -0.475790677215     2.299771552098     0.690223409460
H      1.784060638849     2.867633391429    -1.061056867735
H      1.285788525742     4.947447870487    -2.308665480987
H     -0.929978441736     5.250355624755    -3.431098704495
H     -2.653672628117     3.443366835835    -3.258664601880
H     -2.179410802953     1.380963655398    -1.981532773342
C      1.876095120661     0.567496888358     2.243878998933
H      2.448525500017     1.488404419403     2.153931890286
H      2.120212883893    -0.226190499979     1.545433558269
C      0.858921858051     0.408031206639     3.117171801307
H      0.297896239494    -0.516982950434     3.107851620105
C      0.389165053421     1.434143983899     4.059331557356
O     -0.640351281487     1.194344366262     4.748101671963
O      1.120642006046     2.625491526931     4.226812718944
C      0.520845602356     3.610344096752     5.078821360918
H      1.177901661857     4.504837125162     5.125400164409
H     -0.468127342229     3.926928361195     4.675648823073
H      0.393240707378     3.215813248571     6.112221374684
Pd     0.190220889942     0.149976957313    -0.530291509393
C     -0.812606052283    -2.278376255912     0.725710318081
O      0.333961571393    -1.803080662789     0.251974815243
O     -1.017433874009    -3.430932238484     1.169960276854
C     -2.023191754475    -1.254563607537     0.678816018591
H     -2.654179602595    -1.472371285462     1.550516174296
C     -2.845008482236    -1.432008626511    -0.578323725013
H     -3.687824779549    -0.710496925446    -0.578266932723
H     -2.211770042165    -1.244675260815    -1.468992521678
H     -3.250207323436    -2.464540921999    -0.625709292249
N     -1.488204032694     0.122280455299     0.652270777951
C     -1.839532084827     1.116630791587     1.395195305789
O     -1.193267194740     2.292472032930     1.382415343547
C     -2.959551674400     1.037151743359     2.345703903407
H     -3.870572535324     0.754797373173     1.793857037698
H     -2.699978609611     0.301857284873     3.126153883140
H     -3.098485150478     2.026016839551     2.821198651578
N      1.895419780416    -0.202267186314    -1.621728554356
C      1.724096795994    -1.137988305019    -2.606271909268
C      2.815714872727    -1.599309431879    -3.315467000378
C      4.079673895980    -1.129568943027    -3.034657418725
C      4.222133859654    -0.196485660214    -2.037649678176
C      3.065460179439     0.240153198723    -1.342861244833
H      0.731257883871    -1.511640536558    -2.828821002726
H      2.671849606016    -2.336666077796    -4.088408609219
H      4.941624905844    -1.489430472025    -3.590687397902
H      5.184775704257     0.202609279465    -1.795695866863
O      3.208854506400     1.159385355855    -0.362220857619
H      4.117069380827     1.309610848881    -0.046746082763

