# STO-3G

title

0 1
C     -0.572979671624     1.904565640171    -1.573190728452
C      0.050335680644     3.131234145403    -1.257347932140
C     -0.312139155583     4.301612813519    -1.957683706381
C     -1.283214395217     4.247559434823    -2.975868560984
C     -1.901804060824     3.020476996755    -3.286592481862
C     -1.552160554111     1.847120983983    -2.586039185006
H     -0.636831346540    -0.511789302359     2.409186211128
H      0.798519965882     3.189025294119    -0.467208694730
H      0.162567410811     5.246912401636    -1.701524504031
H     -1.559038042926     5.150806678192    -3.515200570669
H     -2.659652921996     2.974151794209    -4.066097248477
H     -2.051668897561     0.909925612072    -2.817917809192
C      1.915718509226    -0.341155975019     3.271599557592
H      1.727306983668    -0.432840212624     4.337820192550
H      2.268944738775    -1.228124733328     2.754432092391
C      1.716982254915     0.806492068680     2.585305520453
H      1.893448609146     0.830298101923     1.517211501053
C      1.226221620881     2.063539200557     3.165167903977
O      1.017568434434     3.038043092598     2.390802734902
O      1.058273684258     2.186006111758     4.557103259912
C      0.527343192194     3.436027182563     5.016879478932
H      0.434615571788     3.409647048626     6.123887221091
H      1.203181631515     4.277775394192     4.743853815791
H     -0.484483047346     3.615312139979     4.588001445546
Pd    -0.125084233733     0.258138714409    -0.550546945885
C     -0.879790624365    -2.375904031176     0.654095640963
O      0.134825155744    -1.488881374003     0.812273874589
O     -0.781076514385    -3.608818456352     0.731128127255
C     -2.235324710068    -1.625482773916     0.428181195074
H     -2.859832822141    -1.852813615024     1.307552361626
C     -2.951020853384    -2.112940583601    -0.807392527511
H     -3.937306970224    -1.609664664145    -0.887220814303
H     -2.352928276508    -1.868208047188    -1.707635955142
H     -3.110511198661    -3.210446164197    -0.753580210716
N     -2.111672506619    -0.156634554590     0.279388504581
C     -1.801567527731     0.608485398756     1.305259867001
O     -1.300666890843     0.222432028291     2.507834084361
C     -2.178049490962     2.022703900660     1.236460559792
H     -2.680122490180     2.230763529724     0.273745752427
H     -2.871964120002     2.221826010439     2.069993609274
H     -1.272138749666     2.640890770063     1.343109075544
N      1.830724992526     0.132644726586    -1.342340374846
C      2.203400151088     0.835896842143    -2.463445747602
C      3.502534380200     0.784426011198    -2.922516175014
C      4.446719716613     0.025448108294    -2.274282835305
C      4.056183540305    -0.691930599712    -1.178651669777
C      2.716406373903    -0.631152233122    -0.737541727080
H      1.485681178181     1.429253107743    -3.012107540147
H      3.776820648486     1.348439756850    -3.799377698246
H      5.472636945580    -0.014254812586    -2.631105629293
H      4.739931923590    -1.318533205224    -0.640214987704
O      2.480092411390    -1.390214117164     0.300898412392
H      1.457687826653    -1.551854922439     0.600579565345

