# STO-3G

title

0 1
C     -0.503217999893     1.831710331641    -1.941598304175
C      0.327023313205     2.966077524148    -2.109830287459
C     -0.072116637762     4.036679595907    -2.937220128936
C     -1.304356491398     3.987889480613    -3.617282629440
C     -2.139079957485     2.864565849285    -3.456273298681
C     -1.744684943514     1.797800580656    -2.622049464463
H     -1.819278205807    -0.148782528352     2.972149882729
H      1.281352946406     3.027440828799    -1.588232974882
H      0.576649301148     4.904626999575    -3.045562103690
H     -1.611152029147     4.813017734066    -4.256534836734
H     -3.097059765454     2.820458506414    -3.971735694104
H     -2.411216189187     0.947014440711    -2.495725295291
C      1.294533636534    -0.377630709497     3.124573448887
H      1.272972881361    -0.845090722962     4.105565757994
H      1.498661392502    -1.026003538235     2.275884926335
C      1.023072124260     0.933962419953     2.918728158554
H      1.058953583611     1.321366915583     1.909642614456
C      0.643947526821     1.896684483807     3.963597942559
O      0.418598913901     3.091631946096     3.629125865800
O      0.632121251978     1.500796308738     5.314522561455
C      0.185562025847     2.490364873389     6.251344989926
H      0.207503708839     2.062210563004     7.276336740965
H      0.850286823755     3.383434881168     6.231440995018
H     -0.860421105138     2.800400182328     6.026719060254
Pd     0.037603601490     0.260924717217    -0.815599240526
C     -0.467903609969    -2.104642086756     0.885107161788
O      0.543034381955    -1.533560739733     0.255337249945
O     -0.431024174259    -3.128034635237     1.611873244920
C     -1.845513061532    -1.353795401879     0.680818540115
H     -2.471546804848    -1.538366429139     1.564890345895
C     -2.582116245934    -1.868014162119    -0.533699298342
H     -3.545310587421    -1.326816076739    -0.639586977973
H     -1.972052775536    -1.698963956611    -1.443494779480
H     -2.786385528310    -2.953478866359    -0.422857170030
N     -1.602999516956     0.087104233692     0.434359312916
C     -1.812371886045     0.971049067158     1.354158382220
O     -2.131571420747     0.725759988403     2.653647997083
C     -1.712063772924     2.388135152766     1.004395777824
H     -2.414246594362     2.591335442095     0.178451730549
H     -1.975133863310     2.997003809303     1.888574282043
H     -0.675767197329     2.612473681943     0.706423952325
N      1.888636175315     0.219056567207    -1.695328709603
C      2.054659206812    -0.014467365730    -3.033598962604
C      3.321414127339    -0.233624044108    -3.539717449133
C      4.421032018003    -0.211176616394    -2.707806333115
C      4.224679713453     0.045168526036    -1.373344396936
C      2.905147247574     0.261319548348    -0.909749536816
H      1.192365626407    -0.037207445013    -3.690117144581
H      3.445207751620    -0.423403291700    -4.593558269814
H      5.419896866987    -0.377400476896    -3.103036733478
H      5.047994746441     0.112233192568    -0.692777680757
O      2.720541849381     0.585795690999     0.383391072504
H      3.332694107232     0.193006627603     1.032439780508

