# STO-3G

title

0 1
C      2.410212077423     1.135305099574     1.412439314203
C      3.394061869470     0.903383195864     2.408785982865
C      4.365115328125     1.877453905268     2.728171352310
C      4.378300046576     3.113064181332     2.053438853573
C      3.407662669053     3.366676282236     1.062893071492
C      2.436268531018     2.394147069915     0.754318203541
H      0.875296655346     1.508048879558     2.659165912023
H      3.424805761219    -0.051666409485     2.929639899991
H      5.102790723132     1.670044965578     3.501835483614
H      5.124328640180     3.865733432443     2.298221527597
H      3.404985262397     4.318935074730     0.535726485159
H      1.698349982281     2.614112450889    -0.014522090897
C      1.107320645434    -1.526115606801     4.042747761619
H      1.593044904027    -2.498090820416     4.104916548356
H      1.712436849643    -0.666365357322     4.320466771122
C     -0.169428444620    -1.357129449885     3.629093155631
H     -0.582081269817    -0.360207008380     3.588463774498
C     -1.079938190811    -2.426138887183     3.192859848393
O     -0.718443959035    -3.633048578985     3.267326640252
O     -2.366034886367    -2.070546717519     2.748248022692
C     -3.133284820188    -3.130237583164     2.159806960416
H     -4.109221130213    -2.730540300381     1.810896460411
H     -2.604668822877    -3.554835419446     1.274851012692
H     -3.326876478777    -3.939331889652     2.899472178258
Pd     1.091902963515    -0.292218691608     0.786714592805
C     -1.452557794847    -1.142402820015    -0.344598132074
O     -0.332948025822    -1.686563913059     0.118769078692
O     -2.426788632514    -1.749255358904    -0.845442412243
C     -1.505923763415     0.435803216407    -0.222685772497
H     -2.559678762123     0.707653703997    -0.078018147485
C     -0.991394246393     1.106806775164    -1.476025507328
H     -1.050069578169     2.208657246698    -1.360854945502
H      0.066902027601     0.819777807001    -1.647032152568
H     -1.601013327135     0.798401693080    -2.350975250332
N     -0.613329747557     0.854870873813     0.878685878970
C     -0.899840263385     1.625350678173     1.872387409583
O     -0.031730162747     1.877043898434     2.867909687281
C     -2.220765460241     2.253605512206     2.030838026280
H     -2.419272462802     2.876521922092     1.143061809534
H     -2.970134689902     1.452623994039     2.149999145038
H     -2.212710261301     2.887693508555     2.937048764050
N      2.544595201803    -1.747902687026     0.652464063370
C      2.171454052415    -2.983631130916     1.116497640032
C      3.080526805308    -4.023849759495     1.110960066240
C      4.348671935542    -3.843536620373     0.607509324671
C      4.682208246541    -2.608301336399     0.111448532178
C      3.713050269102    -1.573985803874     0.147583599808
H      1.180560814269    -3.140825317047     1.517531308800
H      2.777411113757    -4.985808344417     1.492837384360
H      5.059227765178    -4.665751873394     0.585994240897
H      5.637260472720    -2.435412670636    -0.338584275074
O      4.022319153021    -0.392839035970    -0.418478994138
H      4.968169273084    -0.162086796360    -0.419448061356

