# STO-3G

title

0 1
C      2.453615216111     1.222145738856     1.143789852124
C      3.535298545436     1.071817302730     2.049386288539
C      4.543399122036     2.054949023575     2.149050849229
C      4.498441003601     3.204735604130     1.338748977949
C      3.432575483299     3.369779482544     0.431626545883
C      2.421055793779     2.392744255524     0.339768447653
H      1.075315040294     1.652042633224     2.622894418191
H      3.595665808994     0.184491157535     2.675479789138
H      5.360086153276     1.917374374510     2.855984476101
H      5.277349879434     3.960353342971     1.414096715792
H      3.385734874543     4.257417364190    -0.196713163821
H      1.600471219630     2.547722691902    -0.358446602135
C      0.849803863570    -0.594012249341     4.492197711617
H      1.729218026580    -1.224991872128     4.569833068616
H      0.976047139256     0.439526272823     4.800420785947
C     -0.324145564846    -1.022849908811     3.978235352666
H     -1.147238390979    -0.329939044484     3.877526323612
C     -0.603284535340    -2.380421477611     3.484492601897
O      0.261741133244    -3.293894124167     3.608409531735
O     -1.895957660606    -2.657683986176     3.008879364820
C     -2.061292258406    -3.923777453117     2.356204691418
H     -3.104988519953    -4.011362349585     1.984933182839
H     -1.382694258807    -4.003804762190     1.475758169226
H     -1.863781659694    -4.763539102210     3.059399471831
Pd     1.067063392975    -0.233173243163     0.836004336720
C     -1.569018473116    -1.179311634758     0.038121094766
O     -0.377629652168    -1.675006694162     0.347660620410
O     -2.561413478270    -1.823191680228    -0.374810361115
C     -1.688415399727     0.391462196263     0.190061647926
H     -2.712634411383     0.594053270348     0.530117415979
C     -1.465104177722     1.087485908243    -1.134466067960
H     -1.577964455439     2.183557256479    -1.006419594790
H     -0.440095734358     0.873357528509    -1.499979699442
H     -2.204330359949     0.730945768532    -1.882232605875
N     -0.640536133758     0.885245242910     1.112527338591
C     -0.783063088075     1.743411567043     2.065861580080
O      0.216043950982     2.085429632996     2.892662762570
C     -2.068016664225     2.404251948226     2.349148129381
H     -2.390043863528     2.943260905939     1.442953395199
H     -2.796730986468     1.633978805441     2.650854997036
H     -1.928919523537     3.123329903588     3.178182798807
N      2.509631805603    -1.633034609564     0.421401477043
C      2.733939085053    -1.873947936440    -0.907260427848
C      3.478710534093    -2.972074439279    -1.292853711149
C      4.000967946516    -3.827568739525    -0.346755504148
C      3.767513136998    -3.554502854371     0.977600678795
C      2.993293671890    -2.416926977355     1.312708126424
H      2.321346597255    -1.205199523270    -1.653650951167
H      3.645846950099    -3.158135514412    -2.340935837971
H      4.591329596315    -4.690611542231    -0.643148443928
H      4.174655919913    -4.168525363533     1.753733213121
O      2.814625603137    -2.130584655602     2.623144423323
H      2.677765518659    -2.913460104350     3.193195536426

