# STO-3G

title

0 1
C      1.755721176696     0.626619597431     1.795971420414
C      2.197344105170     0.119533065943     3.050077955640
C      2.509671570373     0.978082615501     4.122652448547
C      2.409515699423     2.374386125851     3.965866315719
C      2.004571304808     2.903986800811     2.725709257030
C      1.681667524348     2.041471548823     1.657420677599
H     -0.297783445294     0.361854505566     2.248374229109
H      2.312650617371    -0.953370189877     3.187467498695
H      2.838311854506     0.554778057652     5.070509680121
H      2.655833266598     3.037135928747     4.792073017845
H      1.939372963476     3.981203550989     2.587657197973
H      1.358208637324     2.473818802037     0.712400473255
C     -0.172137022146    -2.605340678201     2.290763992645
H      0.740032209963    -3.199307111302     2.317611551480
H     -0.672467344076    -2.548005066046     1.328298246197
C     -0.649920086243    -1.964242327515     3.386029732788
H     -1.549912584399    -1.383132670310     3.282184275151
C      0.001596435705    -1.998306086422     4.720617959943
O      0.919935827793    -2.833604554656     4.919675048356
O     -0.345952874937    -1.126354622258     5.772509818946
C     -1.081547874733     0.062867507254     5.452445312252
H     -1.168687241104     0.688750364484     6.366409545106
H     -0.550338060402     0.668425584071     4.682894655917
H     -2.114156228390    -0.176232347156     5.117932765772
Pd     1.151212574194    -0.620463120163     0.275151382313
C     -0.483023506402    -1.216337409027    -2.048634485543
O      0.386408264556    -1.832584041183    -1.250465679241
O     -1.023588211289    -1.692327672890    -3.069209215077
C     -0.833695466691     0.259601416069    -1.597466808803
H     -1.865668750716     0.452583905936    -1.917399266253
C      0.079374472052     1.275960733848    -2.244388012984
H     -0.191728746558     2.295077097027    -1.899374015315
H      1.133100447712     1.069761523876    -1.967275130092
H     -0.022332120250     1.228062274164    -3.349056641804
N     -0.619523357168     0.357610749658    -0.136746438030
C     -1.461446028297     0.766099789894     0.750437211415
O     -1.213885537377     0.707718018461     2.069324487849
C     -2.781987564856     1.311038224697     0.396905237746
H     -2.634954647806     2.175821489147    -0.271697732301
H     -3.370402649895     0.513156943110    -0.086190934562
H     -3.297555000834     1.639606628198     1.318725118233
N      2.849350556870    -1.802550555129     0.309403598954
C      2.675141870917    -3.133572618431     0.021238977052
C      3.773399388212    -3.942586151734    -0.193788783160
C      5.048336248798    -3.424871875149    -0.133567045205
C      5.193368283928    -2.091481707694     0.145876740072
C      4.046235966169    -1.304844199564     0.364343649766
H      1.681111673624    -3.561926038164    -0.013238205408
H      3.625213610391    -4.987720121845    -0.412454201963
H      5.915590975681    -4.057267798109    -0.304356627111
H      6.155647051366    -1.623149326508     0.205146970740
O      4.299728415981    -0.025783581864     0.610433116695
H      3.467192725156     0.462688458437     0.865560985343

