# STO-3G

title

0 1
C      1.835150785583     0.840426828747     1.780334620533
C      2.429386594111     0.412181040428     3.000925033370
C      2.879576939723     1.337500973316     3.963736378667
C      2.762441989019     2.721223749021     3.727791101620
C      2.194127989838     3.172325919381     2.521279377155
C      1.735481257119     2.244524796232     1.563486260018
H     -0.159307517165     0.718046839449     2.304888709376
H      2.562212538929    -0.650477567061     3.193710306862
H      3.331676007726     0.978282429941     4.886159300999
H      3.117076138559     3.435438704812     4.467134201314
H      2.107207827207     4.238692662372     2.323855517042
H      1.288268109570     2.616437497803     0.643241065730
C     -0.805570349497    -2.815611162762     1.908608772784
H     -1.421995763819    -3.711888705252     1.929171938574
H     -0.523372284247    -2.455725085890     0.923447418988
C     -0.419384806332    -2.169689394957     3.034894195710
H      0.198045616781    -1.291903593942     2.933971991968
C     -0.781345409539    -2.598205505658     4.409451615779
O     -1.153165058166    -3.784525013361     4.591774865838
O     -0.674742322099    -1.749311360200     5.529758715453
C     -0.602722596438    -0.334571066444     5.300708744212
H     -0.679717587247     0.193544083035     6.275448856068
H      0.369800971143    -0.046290034605     4.851141708277
H     -1.444664617944     0.014993823820     4.660309589226
Pd     1.173000620023    -0.489436441570     0.362622709751
C     -0.507781502414    -1.272389971033    -1.868819721215
O      0.424024411990    -1.803308570009    -1.075971191115
O     -1.051254556922    -1.826144659919    -2.846852924438
C     -0.929681643348     0.199374625352    -1.473310669866
H     -1.988861201738     0.304471667742    -1.741061404782
C     -0.128738699616     1.233109625759    -2.232087754439
H     -0.451099221094     2.251224435151    -1.930826353848
H      0.950775970126     1.115453563709    -2.007992838668
H     -0.289242670836     1.110866394354    -3.324079357760
N     -0.642189358123     0.405864806402    -0.035635784857
C     -1.453150515863     0.845441572145     0.867527757780
O     -1.119194229227     0.939102575455     2.163684685132
C     -2.831229714329     1.258569582839     0.558516407511
H     -2.795884567963     2.067755941174    -0.189898269255
H     -3.383081619764     0.378158232840     0.188419718696
H     -3.314558799929     1.629487850351     1.481987625909
N      2.852711722439    -1.676515665912     0.492284442893
C      2.661180964937    -3.035037187180     0.461508880533
C      3.747300944800    -3.880095540758     0.346551046698
C      5.023988723761    -3.371945099504     0.245212622211
C      5.183327799401    -2.010669653834     0.265204669238
C      4.048194574441    -1.187635745162     0.388179985867
H      1.665211897940    -3.449610926150     0.546243754216
H      3.587311423352    -4.946233992544     0.329146900717
H      5.881094908353    -4.033355724260     0.149183342312
H      6.146943113178    -1.548396727558     0.183842326279
O      4.308882247832     0.115042983155     0.382098575279
H      3.489685895112     0.643770627224     0.579881863530

