# STO-3G

title

0 1
C     -0.232211392120     1.696444865456    -1.851718882489
C      0.723640836344     2.723984031800    -2.065695668357
C      0.529842051821     3.699735270704    -3.067941754148
C     -0.617691486162     3.661074314711    -3.880431002229
C     -1.576603766282     2.646890584367    -3.680233933589
C     -1.388785342984     1.678580183905    -2.674650512647
H     -0.729156155279     2.684908405420    -0.192248573518
H      1.627081690547     2.766088288112    -1.458834291621
H      1.272470334811     4.483152399812    -3.207052486180
H     -0.767607989644     4.411487864100    -4.653287059278
H     -2.469775485641     2.613336508299    -4.301300887485
H     -2.145429561541     0.909703277057    -2.530300297486
C      1.715044894711     1.861567966435     1.601322234611
H      0.997539962946     2.678172076519     1.603088229289
H      2.260894948578     1.700790573737     0.674745281258
C      1.939710540342     1.061137440536     2.668005977305
H      2.660970845400     0.259363775251     2.590615380398
C      1.245579291288     1.166820872496     3.960372527839
O      1.631823648525     0.448410640238     4.919664695986
O      0.152222126880     2.044576014329     4.102007634273
C     -0.427722011294     2.111732609409     5.412490047001
H     -1.266386980118     2.840381064170     5.408854080051
H     -0.825279661582     1.117825853281     5.720556270210
H      0.324294981220     2.454069000175     6.159457028253
Pd     0.075132551473     0.206317996955    -0.519569908754
C     -0.738936236793    -1.527065016577     1.749520166367
O      0.311276568319    -1.313341140472     0.952291610142
O     -0.786625605631    -2.304088091951     2.718653837463
C     -1.988618721924    -0.668093115401     1.337680423228
H     -2.593165386379    -0.554315130897     2.246168113530
C     -2.821564870557    -1.360841408953     0.283087755293
H     -3.700612266751    -0.732245386926     0.030968935706
H     -2.217194718926    -1.515331925936    -0.633774830569
H     -3.174290405032    -2.343763396561     0.660171897645
N     -1.525415258469     0.603991451715     0.746261335318
C     -1.845822059257     1.795593431342     1.130338301522
O     -1.323784568897     2.900345407575     0.581264303398
C     -2.812824443328     2.048072024666     2.211311768325
H     -3.775465313249     1.587289744662     1.935277870814
H     -2.401434810305     1.628230424034     3.143873592159
H     -2.942447279704     3.139942448187     2.331207693256
N      1.828936541768    -0.387483837279    -1.499210493375
C      2.033494869369    -0.157414726856    -2.837063504168
C      3.269276772598    -0.393241249277    -3.402824572023
C      4.309481231506    -0.873005479299    -2.641148853109
C      4.076713922327    -1.132613968658    -1.318281122877
C      2.796023727286    -0.898517347787    -0.773439316123
H      1.227926393306     0.208204895855    -3.461357785806
H      3.417055269822    -0.196122178086    -4.452203536238
H      5.285649247197    -1.056789714643    -3.082309089482
H      4.836027750526    -1.533769302919    -0.676173869732
O      2.689406391331    -1.231075564772     0.491967090922
H      1.706977189884    -1.329101366417     0.868517344095

