# STO-3G

title

0 1
C      0.253117002940     1.824797615718    -1.275546885428
C      1.336666307861     2.643195911239    -0.863800072232
C      1.538198078864     3.921306464256    -1.429590052877
C      0.669557203757     4.400360118622    -2.426421243632
C     -0.408738407256     3.596605856629    -2.849776452290
C     -0.617871639805     2.326801397364    -2.277348918626
H     -0.578812417184     2.258183456323     0.553103737355
H      2.037765405466     2.294047753927    -0.106808179178
H      2.369964479544     4.533152473957    -1.084377856688
H      0.825398036382     5.384162101737    -2.863000782264
H     -1.087770812280     3.959744333454    -3.618941415935
H     -1.463356962920     1.728365861724    -2.610898336648
C      0.357195785319    -0.117940903483     2.868706938570
H     -0.474601321829     0.121298250117     3.527634573769
H      0.398557042481    -1.135408711329     2.495044763415
C      1.283952974685     0.792670929335     2.495853517871
H      2.074526769699     0.501858190078     1.814324147984
C      1.305067287113     2.195531402024     2.939373949933
O      2.221467620715     2.949013949479     2.512573672686
O      0.381733435562     2.641071608256     3.904448266828
C      0.386662388467     4.051217042999     4.162875105731
H     -0.386099889133     4.288071223781     4.924642657699
H      1.375976745182     4.379519604368     4.554543394697
H      0.145743372773     4.619226210611     3.235093517246
Pd    -0.042943022066    -0.039901187841    -0.559399661891
C     -1.806128515408    -2.178965987621     0.516669646221
O     -0.513555860962    -1.957986990872     0.254948675000
O     -2.292608055863    -3.204785445678     1.023188083348
C     -2.715246715946    -0.960641632320     0.112543392045
H     -3.603320531086    -1.012902535778     0.755287445565
C     -3.156176377016    -1.044141213986    -1.330981776185
H     -3.803119144674    -0.175418411388    -1.572716804968
H     -2.270949343989    -1.027034533443    -1.998739560512
H     -3.727248705029    -1.980740081343    -1.502470982048
N     -1.930229270684     0.283223655863     0.247525900337
C     -2.214723104682     1.305599391614     0.984487312997
O     -1.390333726923     2.349990281146     1.124499550932
C     -3.466041160506     1.405348034510     1.753670494158
H     -4.313596480250     1.336418696398     1.051742571855
H     -3.479458869193     0.597021522176     2.503160955718
H     -3.492832143462     2.382627705632     2.271841079592
N      1.870717438217    -0.663439764495    -1.127598370484
C      2.560142073581    -0.065113148939    -2.152872329154
C      3.883635558340    -0.381530879043    -2.379039952859
C      4.529396063738    -1.303580645970    -1.588337858017
C      3.815704152031    -1.917468932181    -0.595428042362
C      2.458060601288    -1.584823297207    -0.401848886675
H      2.071526071038     0.655700006693    -2.796368962653
H      4.415030543845     0.107306650797    -3.179344412938
H      5.574223157842    -1.549888787215    -1.758402896894
H      4.252277180091    -2.662797140011     0.039589632360
O      1.874221206815    -2.274844572610     0.552457735641
H      0.821745525359    -2.271113892293     0.554314996795

