# STO-3G

title

0 1
C     -0.098028119582     1.902911138812    -1.309268551579
C      0.924881733090     2.884620681906    -1.261993964511
C      0.761013811115     4.142692215877    -1.880220691692
C     -0.427272051849     4.442016761187    -2.572442170533
C     -1.454357625873     3.478563189591    -2.632444101893
C     -1.293244580953     2.227762040278    -2.003413185850
H     -0.590203138333     2.158511420864     0.693064410020
H      1.857407229513     2.673378777449    -0.739680632830
H      1.558026861540     4.881981069659    -1.817258302086
H     -0.554085226050     5.410912249858    -3.050347154358
H     -2.380024985483     3.704007230216    -3.158897803859
H     -2.106128486766     1.505227345654    -2.046365118207
C      1.180807870261     0.044543573015     2.582921169719
H      0.493119140056    -0.349554180086     3.328993761208
H      1.523884676462    -0.660950731849     1.834355866361
C      1.543021065875     1.347043697070     2.532355794291
H      2.208259129507     1.682326721716     1.746857427616
C      1.057165047526     2.388978464603     3.449005058572
O      1.571080736695     3.538735369472     3.386128095775
O      0.141037368646     2.053750090592     4.466989719117
C     -0.321486518411     3.147491818262     5.270473190082
H     -1.042733077259     2.770567462158     6.026268353386
H      0.526401478105     3.630066202400     5.807454072264
H     -0.839634030171     3.905394357324     4.639507524738
Pd     0.163965816534     0.025638616215    -0.578080197267
C     -0.774074371845    -2.470147484316     0.601061369163
O      0.340408995403    -1.963555056632     0.089808802939
O     -0.941363434054    -3.636435792062     1.027263073583
C     -1.996834756181    -1.465208138261     0.639576371811
H     -2.591401128191    -1.731314829340     1.523390768417
C     -2.863225538410    -1.603737316590    -0.592417349467
H     -3.719596823942    -0.901297834268    -0.528161821454
H     -2.268189273617    -1.361781285574    -1.496516428115
H     -3.248893185351    -2.641701269880    -0.672814600518
N     -1.489936863511    -0.076162426606     0.648129384033
C     -1.845752986434     0.881455974690     1.437529412670
O     -1.277504223361     2.094990256124     1.412792090579
C     -2.890352239188     0.715477251036     2.461052918869
H     -3.824339226476     0.409145411862     1.962309561854
H     -2.540829740703    -0.034024038298     3.190023907024
H     -3.041638188442     1.681005982555     2.979231929985
N      1.861740529491    -0.131314164848    -1.720218144526
C      1.730834398100    -0.274110137993    -3.074742846045
C      2.847732023984    -0.512732259324    -3.851908769864
C      4.095595150316    -0.601034440387    -3.273316764835
C      4.197832250699    -0.439297180525    -1.913657715786
C      3.017408366389    -0.198624979265    -1.167174444791
H      0.750929643305    -0.205662009355    -3.532975423833
H      2.736679464258    -0.627266622259    -4.917818433271
H      4.977689509268    -0.783510302631    -3.881702060808
H      5.149165180557    -0.472969038491    -1.425358027532
O      3.117540616863     0.013376820481     0.160479458022
H      3.944524661162    -0.272776620286     0.587187202095

