# STO-3G

title

0 1
C     -0.811088839937     1.992247867053    -1.148724447221
C     -0.239239911306     3.206233626740    -0.700284239139
C     -0.673338797777     4.440732293646    -1.228472360157
C     -1.673366582953     4.477734910479    -2.218529223827
C     -2.244063184205     3.272183637096    -2.672327915511
C     -1.819269540143     2.037200221568    -2.140201036204
H     -2.767037315542    -1.192883070632     2.807557923417
H      0.530965041244     3.202605401337     0.069021258238
H     -0.232341875698     5.365777465025    -0.860747975100
H     -2.006260432082     5.429772730745    -2.625984817730
H     -3.021159598547     3.290860785155    -3.434403051896
H     -2.280987587033     1.118096858648    -2.495443104009
C      0.878138996516    -0.699277016807     3.198906362534
H      1.835959929859    -1.052037529384     2.827380466047
H      0.174988420312    -1.473529483932     3.495665751266
C      0.547013466018     0.610941295365     3.237433591620
H     -0.435593780198     0.914260916904     3.575787613891
C      1.427680436373     1.705291629683     2.800160985661
O      0.941348730903     2.863235425285     2.697764259048
O      2.726995760160     1.421251541976     2.343190970769
C      3.468442021122     2.527053573309     1.810513072655
H      4.476614403396     2.175337088834     1.502405604253
H      2.962731253633     2.945900344309     0.911911742694
H      3.596026827892     3.325236910518     2.576306324958
Pd    -0.256810960862     0.214023355171    -0.423684110612
C     -0.890183540969    -2.430217361446     0.882465890719
O      0.160458920208    -1.772746695006     0.407177524092
O     -0.885513018637    -3.422024454805     1.640499220128
C     -2.227428255958    -1.750684430613     0.425117628557
H     -3.047756833610    -2.133926177632     1.047820541367
C     -2.556319632600    -2.042953395830    -1.019585900265
H     -3.500307652023    -1.527996364537    -1.295079932611
H     -1.743233974065    -1.678143482454    -1.678238669086
H     -2.684380319494    -3.135802975210    -1.165939866221
N     -2.058003763482    -0.278875180311     0.529409980324
C     -2.472496609075     0.336538456611     1.588638173535
O     -2.961892859288    -0.235023437432     2.719422244151
C     -2.459273543555     1.798599170095     1.607500243746
H     -3.013833761780     2.160201950064     0.724327163272
H     -2.948309041931     2.155362826392     2.531391569891
H     -1.416419867001     2.148067750853     1.584328968868
N      1.728090804176     0.420681553189    -1.074520972180
C      2.065850538642     1.311196551963    -2.064204569086
C      3.390142198101     1.575130937331    -2.345376686303
C      4.393847164935     0.934733322347    -1.658591071409
C      4.042125846943     0.021533224205    -0.704634412234
C      2.677596271932    -0.232049682175    -0.441055776431
H      1.299781947282     1.809814730750    -2.643017832754
H      3.635625471002     2.283744180285    -3.119768817230
H      5.438672686702     1.136403643536    -1.879613870117
H      4.773942471568    -0.529835153478    -0.147755397581
O      2.487625617760    -1.168094323625     0.457905920424
H      1.506938175526    -1.547706352433     0.566880412995

