# STO-3G

title

0 1
C     -0.817069729393     2.151755358854    -1.026201822924
C     -0.421923961072     3.414750309271    -0.538928069984
C     -0.816832389226     4.586478418851    -1.220351735208
C     -1.593206794170     4.500669351385    -2.390959976868
C     -1.986985078717     3.237166722519    -2.873675557894
C     -1.604025761429     2.062527877364    -2.194208788885
H     -1.333325063474    -1.122565446938     2.452563440892
H      0.168671341820     3.502891289968     0.369087410593
H     -0.518937953755     5.557559163928    -0.830246843695
H     -1.894832360645     5.404707716138    -2.914803811677
H     -2.598459904703     3.161522937883    -3.770575532071
H     -1.935221118552     1.096557052645    -2.564744256293
C      0.678535469500    -0.381426531091     4.019403011463
H     -0.296948323606     0.078804211102     3.897854476135
H      0.712642693806    -1.299673543873     4.598645326864
C      1.797759153040     0.135092839047     3.467393681736
H      2.755478821130    -0.345967539615     3.599110243311
C      1.825693064052     1.330453477725     2.613979949421
O      0.770022173381     1.714206599734     2.032342405354
O      3.065558142203     1.939401872310     2.351803306673
C      3.037782955789     3.102470295094     1.514153611867
H      4.071875648924     3.491439691198     1.394713500928
H      2.649016786294     2.853373017206     0.503383287409
H      2.413913897626     3.904023393681     1.969604966189
Pd    -0.329575448392     0.460693737745    -0.086766875187
C     -0.974136453355    -2.381840853773     0.382263659730
O     -0.138754384557    -1.515864074606     1.018611126758
O     -0.730552246065    -3.570564226704     0.130470082184
C     -2.352151541779    -1.696444653858     0.060546665390
H     -3.093358771068    -2.173254580318     0.722940494476
C     -2.772545933941    -1.916946298541    -1.371156589329
H     -3.767332638458    -1.454556868953    -1.541166202167
H     -2.037612427176    -1.446301283880    -2.053383164515
H     -2.837630923827    -3.003461322454    -1.589924106889
N     -2.363298865686    -0.230685716396     0.278865097009
C     -2.305506838160     0.251134719753     1.500736073549
O     -2.057439701384    -0.459136633650     2.634303780708
C     -2.688514874671     1.648030468377     1.715011993060
H     -2.981886108246     2.105401178528     0.752569491539
H     -3.543665603683     1.653964899478     2.410941941855
H     -1.829308719892     2.180140646707     2.158160351191
N      1.672821927032     0.475491974008    -0.754421777788
C      2.091033914852     1.289141680897    -1.778526829415
C      3.418214492870     1.313844527347    -2.152248185843
C      4.339401574130     0.512152363444    -1.520813517123
C      3.901008548806    -0.316383495086    -0.526112163633
C      2.535503213953    -0.325064802831    -0.166438676287
H      1.392132390943     1.923745344806    -2.304755177816
H      3.731199886501     1.964266774460    -2.952768110707
H      5.386260881655     0.527835660087    -1.812391123634
H      4.565953144426    -0.975450472861    -0.003617458299
O      2.255569358014    -1.176577691407     0.786646886164
H      1.229050328328    -1.415631588760     0.979662873827

