# STO-3G

title

0 1
C     -0.610935069068     1.842241770216    -1.089157251376
C      0.118747079815     2.982687647658    -0.691601380522
C     -0.252265185753     4.257288945604    -1.169946725558
C     -1.341708897195     4.395679715748    -2.050389530738
C     -2.065074534587     3.253943878223    -2.447972136481
C     -1.705752185866     1.977026474320    -1.969041469733
H     -0.939097884342    -1.487511784392     2.305943298962
H      0.969375921921     2.892657725851    -0.021227189418
H      0.313546562104     5.132083236300    -0.854373521312
H     -1.624714566958     5.378546841622    -2.420303210680
H     -2.912160742160     3.353205823944    -3.123937748785
H     -2.287469159179     1.107481148727    -2.261682298168
C      1.349960317758     0.106686084192     2.917770600652
H      0.503459340906     0.301405856168     3.569435166677
H      1.539104892719    -0.934888659715     2.673410072289
C      2.126271329349     1.076864497925     2.386471611131
H      2.929961044482     0.807699517484     1.711682345686
C      1.952941250425     2.516731213229     2.627124163455
O      2.697499398589     3.324020978454     2.010216607812
O      0.835631490934     2.969968193043     3.353232349586
C      0.668856739293     4.392621802687     3.427795895478
H     -0.233858678963     4.625991966772     4.032680120870
H      1.548055971053     4.869094929339     3.918147266540
H      0.528822326606     4.828151031532     2.412311421861
Pd    -0.182015385663     0.045217688854    -0.350971562646
C     -0.950815216623    -2.747409220032     0.206749121941
O      0.012059267919    -1.941991383080     0.738067054479
O     -0.818606083883    -3.943959547318    -0.082570540526
C     -2.305547289847    -1.961411862651     0.068667282619
H     -2.993000133038    -2.401202090225     0.809827776046
C     -2.912828693327    -2.116248252898    -1.303365199004
H     -3.891787089293    -1.593849258535    -1.336537494304
H     -2.242965625440    -1.667900022479    -2.063714882730
H     -3.070259817803    -3.190570360856    -1.535621376932
N     -2.180634239787    -0.501851567037     0.305791819369
C     -1.946688972136    -0.045925350367     1.515803048697
O     -1.573205458892    -0.774484256040     2.598149172407
C     -2.191837337179     1.372641433884     1.782920985822
H     -2.601254871165     1.859149082295     0.879139876559
H     -2.925777295429     1.432609999592     2.604037679985
H     -1.242056089505     1.843217414011     2.088406758484
N      1.779242888716     0.033275455605    -1.103978247304
C      2.170293287477     0.861804083873    -2.127915747334
C      3.489733717811     0.904928549858    -2.525490593162
C      4.433375316654     0.115028931427    -1.912859607528
C      4.021307108391    -0.732084545740    -0.921676205785
C      2.660945879720    -0.765733679740    -0.547026735443
H      1.449542163084     1.483557558745    -2.641885116327
H      3.781345215353     1.569932441562    -3.322312296714
H      5.475491442756     0.150420337295    -2.219703511099
H      4.702702036945    -1.393320118994    -0.423089996750
O      2.400853342503    -1.647002084672     0.387116521861
H      1.384233425282    -1.888525794392     0.586108530833

