# STO-3G

title

0 1
C     -0.353145192491     1.800076387427    -1.267316081929
C      0.412456645929     2.886144334633    -0.784228559970
C      0.142227506665     4.197862912348    -1.227392506898
C     -0.885142581204     4.433766322812    -2.161142711390
C     -1.647139809795     3.352131991404    -2.645190248990
C     -1.386655693038     2.039339023655    -2.199901046810
H     -2.487707446349    -1.445612730840     2.433206774881
H      1.206909092092     2.717514430538    -0.058829410089
H      0.731701576166     5.027724388603    -0.842385868075
H     -1.092377908550     5.445137041440    -2.503767462174
H     -2.446639635978     3.527163877919    -3.362851882571
H     -1.994941338518     1.216189782229    -2.567575962475
C      0.794175022040    -0.113786844892     2.824953460513
H      1.647230777450     0.154315746552     2.207030668294
H      0.542729249372    -1.171320439911     2.840774929825
C      0.079288031405     0.786846602882     3.536648196817
H     -0.770701531453     0.462425358513     4.121958113498
C      0.338577307271     2.234517746063     3.545791551094
O     -0.433578771756     2.985040591515     4.198762789479
O      1.312672239291     2.770434169317     2.680420212070
C      1.422430609307     4.200698549452     2.670304232044
H      2.227768235544     4.504012330512     1.967505919194
H      0.469407145234     4.667111072268     2.331033785539
H      1.682268518529     4.584731646640     3.683066216901
Pd    -0.025674339187    -0.051244078339    -0.607884760132
C     -0.923762134531    -2.468383155155     0.857419609562
O      0.234158539103    -2.083091800401     0.349082047829
O     -1.122327186714    -3.020400469976     1.973620162591
C     -2.131756046473    -1.910175994453     0.041317707593
H     -3.072702257643    -2.246955711520     0.494924140228
C     -2.119264619220    -2.278902756308    -1.421870011790
H     -2.977836573769    -1.792422242443    -1.929806958641
H     -1.180586580100    -1.940032194286    -1.902090768675
H     -2.208932333659    -3.379338715275    -1.532734624392
N     -1.972310604749    -0.430220962017     0.130623201236
C     -2.370453590408     0.130329410181     1.235238638849
O     -2.809406522713    -0.510718841882     2.339343575615
C     -2.391639756241     1.591039911725     1.308331903483
H     -2.996769953936     1.968180032400     0.466504018751
H     -2.838733938025     1.898302622322     2.271363371137
H     -1.360423560368     1.966211531801     1.242784530432
N      1.986824753124    -0.004973648304    -1.147218347903
C      2.412189244118     0.753689269248    -2.209345545229
C      3.759229356489     0.896216515678    -2.467620410702
C      4.694603929645     0.274789594084    -1.673209849914
C      4.250591666450    -0.504361573258    -0.640007131821
C      2.864808034036    -0.642946175376    -0.411473976317
H      1.694481319493     1.243660443310    -2.855650306779
H      4.078033084749     1.503288194601    -3.299413453800
H      5.757548413929     0.387227620273    -1.870401540944
H      4.926996004240    -1.034615088224     0.001313727768
O      2.575127234161    -1.453302148678     0.581850320498
H      1.586682624124    -1.798228368195     0.648286841511

