# STO-3G

title

0 1
C     -0.398117807716     1.920049976603    -1.814744188208
C      0.534242506003     2.978136969825    -1.885805823871
C      0.287043831996     4.075159232367    -2.738179594687
C     -0.880620120860     4.115472058038    -3.523496573410
C     -1.809183596142     3.058944680023    -3.446399947165
C     -1.574736582247     1.962112263171    -2.591388247734
H     -0.725000365181    -0.209751935122     2.476478861381
H      1.441767602536     2.962992692434    -1.285255143020
H      1.004270406164     4.892750570107    -2.782183322099
H     -1.068167104489     4.961444067824    -4.180847034734
H     -2.719555535677     3.088930759264    -4.041906633852
H     -2.311664457523     1.167367310214    -2.517933021604
C      1.821693995788     1.815132021018     1.610103574799
H      1.401318264271     2.796356808219     1.401924599588
H      2.335148358126     1.327250539953     0.789237438348
C      1.722779854511     1.208886303153     2.815760560351
H      2.142976617526     0.220741213998     2.950515260356
C      1.050092570683     1.786307234993     3.991346509970
O      0.570888631910     2.953877463300     3.929669401146
O      1.080026221864     1.073503273604     5.203082725162
C      0.335790475898     1.650405303457     6.284310799693
H      0.419292852438     0.995528865169     7.177893536678
H      0.735519531357     2.655368521558     6.548984346423
H     -0.741902231040     1.736640114397     6.016074008386
Pd    -0.111428855199     0.404773469048    -0.561847627721
C     -1.043184150598    -1.972764853335     0.852712322159
O      0.018338598836    -1.151259242717     1.102919202038
O     -1.031305601580    -3.209787451710     0.892202840608
C     -2.329310136224    -1.115352713877     0.567360656624
H     -2.997690508646    -1.266821565007     1.430611394906
C     -3.045177356997    -1.563957704807    -0.682275291136
H     -3.972245361610    -0.967290401328    -0.812514721005
H     -2.394145969033    -1.409771321932    -1.565359091561
H     -3.316524970903    -2.637876889003    -0.605215618549
N     -2.058811412754     0.336708073624     0.395067299965
C     -1.719943172789     1.061421731671     1.437576004180
O     -1.312177435464     0.587464885301     2.637762574874
C     -1.860728250277     2.516278111297     1.337522236295
H     -2.909398884121     2.735665729528     1.074814163499
H     -1.608836681208     2.968909360549     2.314847158120
H     -1.183336539627     2.900551919998     0.561468472840
N      1.722335177552    -0.143164504644    -1.428350871235
C      2.036219369355     0.183120036772    -2.725219860356
C      3.280353128850    -0.117951337229    -3.237350647065
C      4.220031084747    -0.761373017136    -2.466394384314
C      3.877964690347    -1.111813427370    -1.189439118559
C      2.590895961212    -0.806555378074    -0.698087353563
H      1.312228392854     0.676308386481    -3.360752723491
H      3.514572617265     0.153082533674    -4.254297628779
H      5.202229810929    -0.999790780929    -2.866377761584
H      4.554679225090    -1.640212981065    -0.546367398048
O      2.378525054047    -1.235982112568     0.521788276680
H      1.370096209565    -1.278135401347     0.868308268245

