# STO-3G

title

0 1
C      2.547818317988     1.167838649152     1.388034574760
C      3.683550057805     1.432023893067     0.580158583831
C      4.461589281901     2.589323719398     0.782933161909
C      4.125800214506     3.499904207690     1.803458716190
C      3.003145179143     3.244363484429     2.611548110223
C      2.215697465651     2.090096026116     2.406412970957
H     -0.003554189179     0.198318379444     2.672593426257
H      3.968216670147     0.737042217182    -0.208569251520
H      5.325040007111     2.775417866274     0.146626253120
H      4.726491094221     4.392447032039     1.963672374523
H      2.730088942244     3.941360252246     3.401953307131
H      1.349252330500     1.944521736348     3.045161238508
C      0.162925362931    -2.541959487685     3.308333673196
H      0.238632724319    -2.547082587401     4.393065276298
H      1.057048222190    -2.819561382272     2.758941676061
C     -0.969219358922    -2.213077580097     2.641850187828
H     -0.957375746856    -2.219526258249     1.560341810666
C     -2.239155797462    -1.814389248225     3.271047188770
O     -2.386913195562    -1.925176064274     4.518405967283
O     -3.297904345214    -1.406858726234     2.433444939885
C     -4.521800588804    -0.974242036438     3.054289328071
H     -5.348804642309    -1.651979634709     2.750761536776
H     -4.488952162126    -0.947301159917     4.167284722628
H     -4.767428404244     0.050126648331     2.702588726966
Pd     1.532065224762    -0.495984437137     0.883868154103
C     -0.242889690220    -1.403329578766    -1.311654996264
O      0.415394491420    -1.981276096872    -0.291026397793
O     -0.670842914264    -1.973520325189    -2.328657537972
C     -0.467401745096     0.148657935273    -1.102408099505
H     -1.491602269508     0.365106228908    -1.435254018315
C      0.497360589193     0.972329716425    -1.922603106460
H      0.297593721622     2.051195932220    -1.755630089617
H      1.540311334293     0.756014228386    -1.616319403049
H      0.374776312233     0.742751580708    -3.001897734197
N     -0.206076574527     0.453890244372     0.309947723021
C     -1.029450910184     0.900897714011     1.191978714444
O     -0.770309396706     0.814212081034     2.511331133513
C     -2.317730978042     1.513792557117     0.840457028005
H     -2.128174172010     2.338357266942     0.132984618739
H     -2.962891617998     0.732632260511     0.404601786966
H     -2.789915638749     1.905947904586     1.760145361234
N      3.087904780489    -1.772759864156     1.467433926138
C      4.052239383489    -1.376742752301     2.362418687872
C      5.073445112653    -2.234778042684     2.712338810743
C      5.142508061831    -3.499289112993     2.177838407626
C      4.163567942505    -3.886097507126     1.305186608808
C      3.125916046219    -2.989731658474     0.969839975176
H      4.015823554338    -0.396613776014     2.818445218197
H      5.822154739390    -1.906752204584     3.415278786123
H      5.945952222388    -4.178071428466     2.451940455967
H      4.148705295028    -4.866048124256     0.869614459484
O      2.235952562840    -3.509064988183     0.162906500570
H      1.385893910565    -2.942879600569    -0.132949697706

