# STO-3G

title

0 1
C      2.585276450948     1.103952287469     1.455090258520
C      2.935803644750     2.089410077624     0.495548921873
C      3.779451949649     3.164588336263     0.836218952531
C      4.285838818351     3.285110842429     2.146565325539
C      3.942770807608     2.322113242966     3.112712984600
C      3.104137651544     1.238823982682     2.769489978141
H      0.793345494189     1.685960971142     2.217510362183
H      2.549022344829     2.019606115903    -0.519272023223
H      4.037052450513     3.907634097529     0.083772708311
H      4.932549026212     4.119154643250     2.409341227185
H      4.321544851754     2.408707483644     4.129469623124
H      2.867380430126     0.495518966121     3.529408819839
C      0.279871700334    -1.405449716316     3.886272327105
H      0.520722141979    -2.465552652593     3.879202648437
H      1.051391671441    -0.737435615295     4.259839067979
C     -0.886536933491    -0.918113783859     3.406529159775
H     -1.052740845904     0.149060757728     3.376111957514
C     -1.967515588632    -1.740078666849     2.839857727708
O     -1.974841372546    -2.985660232078     3.025812736103
O     -3.000178605816    -1.090187144150     2.133554130465
C     -3.970778855283    -1.913603834127     1.460420254637
H     -4.029898017529    -1.616426731062     0.391322523840
H     -3.741203116237    -3.004000567606     1.479740814425
H     -4.970276434686    -1.759267962365     1.919969391424
Pd     1.465327247250    -0.483557887192     0.898953485262
C     -0.868009166387    -1.680591906729    -0.496660038163
O      0.139936947308    -2.043551180319     0.299208013282
O     -1.744312854373    -2.421601263125    -0.977184347703
C     -0.869573512978    -0.135540537021    -0.793579427081
H     -1.917020255572     0.139861232505    -0.970786219882
C     -0.062994590768     0.196844991339    -2.028237653287
H     -0.099377413520     1.290396860471    -2.213293269016
H      0.993604625073    -0.106549951712    -1.881975669837
H     -0.478499828218    -0.334549421261    -2.910126073981
N     -0.232600709756     0.573253551638     0.335388289552
C     -0.742444464979     1.533287512839     1.031739196671
O     -0.125410807290     2.058835710850     2.100173173270
C     -2.061976783941     2.115866748118     0.738253392918
H     -2.051115193725     2.507219354086    -0.292276496609
H     -2.824723923284     1.330520114529     0.877101814851
H     -2.258069242732     2.942249275805     1.446892659787
N      2.985631824767    -1.837131823442     1.391834525698
C      4.308302851854    -1.468662661308     1.411379296658
C      5.268241243710    -2.339964560897     1.882721762097
C      4.919135235756    -3.593302780891     2.328398228571
C      3.602587064129    -3.957872751188     2.265736334635
C      2.646417972233    -3.049946808716     1.761606721075
H      4.614216023997    -0.494846381626     1.051389599754
H      6.300610766757    -2.030713261018     1.901132372437
H      5.671454744272    -4.281992328347     2.703841986174
H      3.266899649941    -4.929628041052     2.570871129370
O      1.431961049614    -3.542954257342     1.711160283767
H      0.724078654737    -3.024766350054     1.136340831753

