# STO-3G

title

0 1
C     -0.435276120820     1.803882772250    -1.742604222851
C     -0.220573784483     1.639412907827    -3.140767732749
C     -0.787325247362     2.518253541969    -4.083499505178
C     -1.580063879418     3.601255762604    -3.657838716379
C     -1.802417454932     3.786579612835    -2.282127160628
C     -1.244506095820     2.898069591341    -1.337698755036
H     -0.063492736883     2.086724748723     1.199770840199
H      0.390701970255     0.816624459543    -3.503291755216
H     -0.605244208656     2.358131616947    -5.144405777894
H     -2.014337963059     4.284982671566    -4.383420119056
H     -2.412538919186     4.618113161366    -1.934764171095
H     -1.465372716212     3.074862497332    -0.290441268888
C      2.133201116088     0.814666375547     1.820438724440
H      1.692637592829    -0.178642053819     1.849010874528
H      2.807484417085     1.007845805468     0.990903074804
C      1.899626447827     1.782033980013     2.741888685659
H      2.374564892695     2.748880028845     2.638325038478
C      1.020701096366     1.638551250700     3.915653367941
O      0.371207628136     0.570607592366     4.099236753626
O      0.947658633441     2.701505252028     4.834440529934
C      0.057681350734     2.511290197249     5.942785447388
H      0.083746573210     3.411466905320     6.593650795592
H     -0.987846506277     2.367966550414     5.587813106208
H      0.367258723734     1.631793974889     6.551891570615
Pd     0.177657664927     0.232957570269    -0.569463071516
C     -0.677445476885    -2.215642819801     0.714760578813
O      0.473783904164    -1.644208345351     0.356542320194
O     -0.844044539764    -3.407464235207     1.048525419793
C     -1.931834278918    -1.238040125244     0.677559789315
H     -2.573999492156    -1.509272287733     1.525477318042
C     -2.719671501041    -1.380019490926    -0.603838791058
H     -3.591236806676    -0.693626925789    -0.580761096351
H     -2.083385968919    -1.115329871276    -1.472474820351
H     -3.080914725171    -2.423785092975    -0.715193877666
N     -1.420757881170     0.144163345753     0.715871219398
C     -1.639231360949     1.033935109638     1.620723855166
O     -0.911394373457     2.168136355818     1.711057134371
C     -2.703815131007     0.899011623995     2.625550709651
H     -3.658131323648     0.719136021156     2.103429206797
H     -2.431849612882     0.066026912466     3.296682351827
H     -2.763686405701     1.832613606606     3.214369661880
N      1.990648650664     0.043826106342    -1.539619236443
C      2.407123466380    -1.220557116028    -1.870629995593
C      3.697645760929    -1.420894854418    -2.320230301766
C      4.576830705127    -0.364202528445    -2.424296630973
C      4.132762221826     0.886156259210    -2.079033847030
C      2.807418191627     1.045414101981    -1.634190141543
H      1.721704255747    -2.057140848276    -1.805308539610
H      4.017776050116    -2.417185100631    -2.579662864978
H      5.595800557472    -0.519030265315    -2.769379966427
H      4.764611985873     1.750764557923    -2.130319564564
O      2.480447630103     2.289988233416    -1.296319428570
H      1.501500456294     2.351155924924    -1.106208248765

