# STO-3G

title

0 1
C     -0.050903800997     1.511576280444    -0.978885491851
C      0.965696574087     2.345764516305    -1.509755988772
C      0.835631703390     3.750791498598    -1.520126285052
C     -0.319797712643     4.365410981410    -1.003597886247
C     -1.347017915135     3.555887927371    -0.482135326401
C     -1.212192063743     2.153044110479    -0.469422128908
H      0.387941071644     0.674426871572     2.444659412388
H      1.872152281793     1.917271127108    -1.927582966767
H      1.639474695399     4.358981022506    -1.931018246960
H     -0.419021136005     5.448262107856    -1.006702619001
H     -2.248640091034     4.013528878729    -0.078641568806
H     -2.025154228654     1.561129898466    -0.057701717096
C      2.267517616990     1.849738908513     2.649425055974
H      2.643124645526     1.783576578140     3.667664977477
H      2.742247225611     1.200153387557     1.917894012743
C      1.272626160028     2.696215200289     2.275420253230
H      0.947700945218     2.715691943109     1.244861096038
C      0.581479825285     3.635684613261     3.173661461997
O      0.867018238697     3.662369521548     4.402288680844
O     -0.433413358164     4.454955646842     2.645851569776
C     -1.065445426680     5.347398272410     3.573843548103
H     -1.840099402493     5.941620427047     3.043558549490
H     -1.561224378185     4.779461766825     4.393465917328
H     -0.323091973552     6.053631969893     4.010387283044
Pd    -0.054994506259    -0.518579682101    -1.065258639676
C     -1.617975127309    -2.977186748908    -0.822344474915
O     -0.442210422480    -2.586361175669    -1.296489868697
O     -2.157585893853    -4.096867835746    -0.957259840454
C     -2.410015522617    -1.855307449572     0.006635594993
H     -2.942823300638    -2.366466726751     0.819258716355
C     -3.405818047050    -1.119734474093    -0.858273372986
H     -3.935465873753    -0.358110451210    -0.249889898013
H     -2.879740549815    -0.611343532632    -1.691946809232
H     -4.147450114234    -1.833650056171    -1.273800303105
N     -1.411539283955    -0.874267030279     0.443820375578
C     -0.995578247262    -0.626161755533     1.631591611408
O      0.224349592152    -0.042768647464     1.785787417980
C     -1.738557524014    -1.034922790445     2.836289586476
H     -2.751486979619    -0.601139461018     2.781656776246
H     -1.768965919769    -2.136851232460     2.870306755658
H     -1.211027274105    -0.655102592385     3.730426905293
N      1.772667140021    -0.614474483420    -2.014193465651
C      1.953528263965    -0.957464691516    -3.326072417750
C      3.233417066674    -1.115857327489    -3.821124600963
C      4.328249924511    -0.951105784458    -2.997620794479
C      4.111138827610    -0.628618433981    -1.682020230379
C      2.788976171205    -0.482317637624    -1.221353135706
H      1.095141489184    -1.084060436074    -3.975650552112
H      3.372207896934    -1.379902787417    -4.856777563538
H      5.337180480589    -1.080651801523    -3.380272860368
H      4.914271959129    -0.502358617407    -0.983813065041
O      2.678156122559    -0.195308510902     0.077404717298
H      1.727127587826    -0.157886276828     0.392140610813

