# STO-3G

title

0 1
C      2.501914153996     1.186820814716     1.232419474586
C      3.005978687510     1.617058221295     2.494495526152
C      3.902160472937     2.707139214522     2.607642060427
C      4.319013832186     3.398164132715     1.460576026989
C      3.836103032595     2.990685840176     0.198025033474
C      2.946826689304     1.906816820264     0.088730963856
H      0.948333036864     1.711112554331     2.639314886837
H      2.714398612516     1.114682926206     3.420791138720
H      4.264380166733     3.002455123005     3.590072152852
H      5.007232874319     4.235654912520     1.542025049831
H      4.155468347701     3.517541645760    -0.699032233088
H      2.595477013400     1.614009358158    -0.897873930687
C      1.404010056849    -1.580929686238     4.013949043673
H      1.834846231944    -2.563734025686     3.838233475886
H      2.097510668307    -0.818978113093     4.361453447410
C      0.099875856133    -1.296915817082     3.796352326386
H     -0.260961380880    -0.289527100982     3.948209265696
C     -0.907058090357    -2.266777020125     3.336469534816
O     -0.648599742508    -3.500854639084     3.361314698942
O     -2.198156832021    -1.794834405371     3.029508086080
C     -3.131792203144    -2.791619000191     2.588390113293
H     -4.100560744493    -2.309750891820     2.338216954494
H     -2.757875478559    -3.309046094704     1.674453806526
H     -3.310839276496    -3.546518691006     3.387054066726
Pd     1.182561630133    -0.346921350837     0.865324758627
C     -1.363458630026    -1.336665819592    -0.137533279211
O     -0.210862790953    -1.807316022919     0.328304317839
O     -2.277120715466    -2.004951031080    -0.670386343030
C     -1.535809992959     0.220771013958     0.018280812532
H     -2.594871869443     0.390872309608     0.252763417708
C     -1.198913120133     0.948563949993    -1.263978331516
H     -1.359282731581     2.038111682167    -1.128423460997
H     -0.135680293680     0.774765366476    -1.526205676900
H     -1.846237298635     0.586551527849    -2.090254145124
N     -0.596255539209     0.720922448871     1.047395211934
C     -0.887071742117     1.525947527103     2.012165476981
O      0.021740439002     1.950691836504     2.904839892569
C     -2.253933969081     2.015748593623     2.257470627703
H     -2.596999289434     2.564117799473     1.364678031602
H     -2.894198088314     1.145128593007     2.483016484348
H     -2.244581531070     2.697419013371     3.128530414477
N      2.669320098105    -1.753211289073     0.483555433590
C      2.393396925207    -2.583596639400    -0.575231461797
C      3.181781115113    -3.693398655072    -0.808621972704
C      4.236916461458    -3.990085631978     0.024590303944
C      4.495128883872    -3.141625801115     1.068347160245
C      3.672386668690    -2.014611162938     1.259777272062
H      1.581109883541    -2.355090823541    -1.254150796567
H      2.952602115992    -4.339186305622    -1.640502157628
H      4.851920771550    -4.869786304220    -0.145718723913
H      5.303293134140    -3.309905845053     1.751658083084
O      4.020258081045    -1.264796764061     2.301411036744
H      3.513125570302    -0.416719113353     2.332500119493

