# STO-3G

title

0 1
C      2.509558290636     1.308302707204     1.026872959470
C      2.519677386582     2.478777612068     1.830747970639
C      3.433718453213     3.526896023747     1.587230578445
C      4.353277371926     3.441855034320     0.527266134890
C      4.357816806645     2.292543726250    -0.286938107658
C      3.455652605381     1.241890436669    -0.035482913126
H      0.771592904557     0.695886143134     3.270125650965
H      1.819104275759     2.603749837726     2.650720366066
H      3.419227455511     4.406219937844     2.228285053181
H      5.053919372573     4.252128432158     0.340000331548
H      5.064358390849     2.209311749506    -1.110361757658
H      3.490674146899     0.361594728268    -0.673440514603
C      1.181405106872    -1.700345296790     4.067365258676
H      1.929481411945    -2.417069549948     3.738638041046
H      1.561095162654    -0.875475935673     4.668082370782
C     -0.131243828985    -1.813511831928     3.757465503480
H     -0.828728484707    -1.056083811889     4.088275877513
C     -0.721119351595    -2.894718359664     2.952405508996
O     -0.010205016020    -3.871064450775     2.585905665592
O     -2.108871336945    -2.873462208956     2.724908541783
C     -2.597653211637    -3.842669556123     1.787548506357
H     -3.693721037394    -3.714048067918     1.662163905893
H     -2.121046987861    -3.699525546612     0.790308292378
H     -2.402714317307    -4.877830461272     2.147637828894
Pd     1.061625272051    -0.148110389096     0.977293897581
C     -1.601211313906    -0.687526095241    -0.053360027613
O     -0.564173519971    -1.383382248810     0.411302801249
O     -2.597603883326    -1.147771039718    -0.650320912233
C     -1.503687655492     0.879251707218     0.216386760928
H     -2.519818830950     1.243318707975     0.415891030613
C     -0.931192676383     1.624779111280    -0.965925194465
H     -0.881113153893     2.708343443799    -0.731911395819
H      0.093721604501     1.262365998375    -1.184934431625
H     -1.573800974095     1.473661207753    -1.858318082231
N     -0.562222033513     1.053411488994     1.332916156421
C     -0.791417773534     1.532996477425     2.503455507870
O      0.070141595463     1.353628904745     3.529079271474
C     -2.007632190223     2.290861294861     2.826946751210
H     -2.081651644174     3.140680308071     2.127481793847
H     -2.873040192408     1.612857390896     2.739630277624
H     -1.935284366779     2.663745172577     3.865630051608
N      2.410271057097    -1.698527053898     0.746567394074
C      2.066923684714    -2.711385404103    -0.114020713262
C      2.828625525822    -3.862440215512    -0.161354773807
C      3.912299638076    -4.021184880443     0.674063112474
C      4.228397035161    -2.997609659991     1.528755412336
C      3.431685665704    -1.837445713489     1.534598824474
H      1.224476804925    -2.599629044417    -0.784759267204
H      2.548399363773    -4.653040212497    -0.837799676322
H      4.501040909921    -4.934389167857     0.654966797349
H      5.053605636714    -3.058132427636     2.209587383100
O      3.806820680365    -0.918985258711     2.419654377743
H      3.278510325747    -0.079294513403     2.297159294958

