# STO-3G

title

0 1
C     -0.738996986528     1.837652513946    -1.396943556948
C     -0.609004906790     3.161204996785    -0.926721827885
C     -0.997452441442     4.239978605015    -1.750223655486
C     -1.502122175014     4.002004098764    -3.042217309476
C     -1.626327133648     2.678349933207    -3.508380853183
C     -1.249076062301     1.594435664762    -2.689064539366
H     -1.481807768827    -1.035759287074     2.240313299233
H     -0.220105383802     3.366730059843     0.067885718774
H     -0.904849458701     5.257645533959    -1.375408863890
H     -1.799710785782     4.835111418003    -3.674808389959
H     -2.023024483672     2.485362419077    -4.503124937316
H     -1.370855544069     0.577955209040    -3.053884490674
C      0.698749869568    -0.083237189466     3.680209504404
H      1.742296416756    -0.379951248204     3.631186009633
H     -0.001510254134    -0.864186678206     3.966780566527
C      0.260035371613     1.149448761473     3.341816626739
H     -0.799242905988     1.362330802998     3.348266237988
C      1.127535122638     2.251615758872     2.903608443702
O      0.586466190891     3.305662908263     2.473546777634
O      2.519877058212     2.065430040229     2.831185765959
C      3.272684734196     3.149373581400     2.270769037523
H      4.350349633195     2.879005508941     2.261344581181
H      2.958360944917     3.347323672650     1.221326096896
H      3.148466040926     4.073819503031     2.878644228292
Pd    -0.283717820841     0.274672938671    -0.251590159271
C     -0.838028524508    -2.559631452430     0.427363285123
O     -0.166168893378    -1.569168070083     1.082073019618
O     -0.481109504892    -3.742619988619     0.346791152665
C     -2.185310001921    -2.011086399953    -0.160222193193
H     -2.989056820380    -2.460998327424     0.445827952000
C     -2.384370023421    -2.416074672161    -1.599540484804
H     -3.372282638887    -2.053885940699    -1.953514795077
H     -1.592529439575    -1.964272964513    -2.228991973351
H     -2.349921806818    -3.521533731934    -1.697141482944
N     -2.305645453895    -0.533983566757    -0.123097257882
C     -2.456916153687     0.095908269587     1.023392743476
O     -2.272884961796    -0.421103143813     2.265044367504
C     -2.985380503773     1.461787654460     0.995523281140
H     -3.207678411181     1.753537495726    -0.047884663130
H     -3.914959017706     1.469295321666     1.589361576415
H     -2.241409353781     2.142820997540     1.442462345660
N      1.802838789203     0.581657100434    -0.365148200354
C      2.361031533841     1.498282938554    -1.224626427623
C      3.727056166623     1.684271737246    -1.262660214028
C      4.557932395247     0.947684546420    -0.454071621289
C      3.993760610515     0.025291638139     0.379915170482
C      2.591646590480    -0.146127956899     0.399434471446
H      1.746468952364     2.082615463566    -1.893114727744
H      4.143798835664     2.408864620429    -1.943400707157
H      5.635147057758     1.088682112315    -0.483004218606
H      4.586212048054    -0.586583871395     1.031251543061
O      2.202956366705    -1.082536694234     1.223669362601
H      1.180229950849    -1.387215624938     1.238465400593

