# STO-3G

title

0 1
C     -0.764232721469     1.851721708672    -1.062523960877
C     -0.294142011432     3.051550222418    -0.489396400167
C     -0.593810447745     4.287243444375    -1.101967101101
C     -1.349248721798     4.326409283616    -2.288927546398
C     -1.814772330558     3.124868160497    -2.858506465173
C     -1.526772056946     1.886466510056    -2.248300068644
H     -1.409707843862    -1.380953412719     2.392029725843
H      0.286987096334     3.038199027905     0.428547754888
H     -0.239738839936     5.210145356217    -0.646731477400
H     -1.578770658916     5.279425152865    -2.760055416283
H     -2.407864642853     3.147589290739    -3.770663083893
H     -1.909094417780     0.969263885393    -2.688882133538
C      0.958792535274     0.065639460680     3.060394297808
H      0.055001338428     0.465471022554     3.510577396195
H      1.004419484635    -1.015267653263     2.959703457495
C      1.975232819932     0.832884250533     2.608534925590
H      2.831800835363     0.361156893723     2.145118550966
C      2.010298422309     2.302159809224     2.650704652844
O      0.975320637702     2.944263838661     2.979547559513
O      3.132239198409     2.960012323301     2.117353967838
C      3.077283851714     4.393499479733     2.113151074672
H      4.019626298440     4.796307353572     1.683126408658
H      2.228554255785     4.755908957046     1.490055705403
H      2.971664832171     4.788499283985     3.149192638982
Pd    -0.418261865345     0.094565836331    -0.196717831472
C     -1.364198352267    -2.661462205004     0.307217453097
O     -0.397511045576    -1.905652180159     0.904011632011
O     -1.268334625991    -3.861867122623     0.019214013565
C     -2.667131376063    -1.812351940351     0.089259089934
H     -3.413318310050    -2.205761334357     0.799215100692
C     -3.211482864391    -1.956210623958    -1.310022681716
H     -4.157001137488    -1.381542506467    -1.400733236695
H     -2.480223154362    -1.557078038749    -2.040163148020
H     -3.415848535116    -3.023916795585    -1.535837160089
N     -2.479171618338    -0.359275380241     0.316115727819
C     -2.296755285352     0.100217020782     1.534742528881
O     -2.025351083061    -0.635407066775     2.643366386842
C     -2.498936905867     1.530221075249     1.775684510740
H     -2.819899892436     2.025087606746     0.840742168006
H     -3.289013412876     1.628663305998     2.538970871265
H     -1.555800459473     1.965566762605     2.150176717312
N      1.618784592617     0.041225584599    -0.759816624353
C      2.159225749488     0.942636446024    -1.646275226736
C      3.506055375282     0.914839509734    -1.939829660066
C      4.331631049779    -0.017081886121    -1.359423206211
C      3.776887963936    -0.923172459710    -0.500081126753
C      2.392614083745    -0.877556422522    -0.225043027531
H      1.541842799300     1.681983693406    -2.135393340631
H      3.912102544295     1.634519313884    -2.632035449250
H      5.394358536155    -0.040364617585    -1.586179143224
H      4.363910002314    -1.686678533344    -0.028069534788
O      2.007390893342    -1.812188755590     0.606029597740
H      0.967045207121    -1.962125768290     0.781351188878

