# STO-3G

title

0 1
C      1.895699881878    -1.264906491075    -0.825801682458
C      2.871576148750    -1.392802801020    -1.850192028459
C      4.213194255481    -1.703702337199    -1.541546368127
C      4.607114610669    -1.886897510107    -0.202853380744
C      3.650071612344    -1.770963161082     0.825210896119
C      2.309151038860    -1.467112974257     0.517628683312
H      1.205659910152    -2.975426983874    -1.218428732230
H      2.587134262536    -1.246770898421    -2.891195271746
H      4.940926719277    -1.804084463710    -2.344450012519
H      5.640877878749    -2.125634700944     0.036320696181
H      3.944086703390    -1.922410994028     1.862041067128
H      1.585383638485    -1.401108748485     1.327907058107
C     -0.106425613518     1.486021853127     1.337228026367
H      0.306068172292     1.756715001587     2.306687504862
H      0.295110017219     0.591343377721     0.868203329736
C     -1.071507831713     2.199450115598     0.711900123743
H     -1.444792651174     1.871613290614    -0.250001901532
C     -1.685482262439     3.429306438649     1.241216917906
O     -1.333842290433     3.876517361937     2.366951214805
O     -2.673017157306     4.072579900959     0.475751868114
C     -3.238346548765     5.260002201383     1.048369457187
H     -4.001570807833     5.674578305594     0.354931704950
H     -3.736655987299     5.033068395665     2.018098558767
H     -2.454405063213     6.034937994535     1.206699597832
Pd     0.017650304957    -0.631131364698    -1.260575733006
C     -2.961148061923    -0.795613441917    -1.250557767995
O     -1.962639452651    -0.025463085579    -1.698510104958
O     -4.171077472540    -0.631402317586    -1.481666588772
C     -2.464431181602    -1.967617452514    -0.342793025689
H     -3.182729802698    -2.781841031118    -0.501548230552
C     -2.488345401024    -1.586394661415     1.120874753937
H     -2.156495410283    -2.445000737407     1.739827212551
H     -1.806401711172    -0.733868240438     1.300228764082
H     -3.516965017532    -1.298267261120     1.424318054764
N     -1.067424322279    -2.327426195421    -0.682052224729
C     -0.616181273739    -3.534140539504    -0.816684217963
O      0.647158653193    -3.805902972478    -1.150664873876
C     -1.456464600695    -4.728125280386    -0.611322005067
H     -1.870499394541    -4.697435725484     0.409995179650
H     -2.246155385273    -4.736415032916    -1.380620419562
H     -0.831337502723    -5.634063522952    -0.725664038964
N      0.781108176657     1.200687582842    -1.977835580971
C      1.975687312762     1.716588630841    -1.536214272657
C      2.515760287970     2.837215152411    -2.131769923754
C      1.864527165759     3.463114932858    -3.168029900776
C      0.657636994081     2.961166978587    -3.569300316743
C      0.122948277280     1.823316838578    -2.927471694490
H      2.503054435738     1.258475158924    -0.709874370116
H      3.457907536594     3.222485553420    -1.777363013220
H      2.287253447779     4.345484933206    -3.641216820054
H      0.081706296036     3.422857329371    -4.346813844532
O     -1.072801577286     1.494741346404    -3.354707353842
H     -1.620516858102     0.832327032290    -2.745358301970

