# STO-3G

title

0 1
C     -0.793341115376     1.948727350838    -1.240580802765
C     -0.275791595268     3.212145212319    -0.868804295646
C     -0.713320831355     4.386015003455    -1.518470920055
C     -1.664500846103     4.312576661094    -2.553753579658
C     -2.182651933128     3.057941570525    -2.931087583443
C     -1.753789669995     1.883938652436    -2.278008175435
H     -3.165227543373    -1.116880208153     2.619533587683
H      0.457944707138     3.290646318202    -0.068169344837
H     -0.312855854380     5.350341646366    -1.210828428087
H     -2.000231791242     5.217712684108    -3.054867294549
H     -2.921870128988     2.991297760388    -3.727366390235
H     -2.175021829279     0.925596914504    -2.574964422239
C     -0.007534241104    -0.265265473583     3.493443031248
H     -0.829345686927     0.393336729001     3.224320739515
H     -0.277278358293    -1.250047447519     3.864488642144
C      1.285895421200     0.093272063797     3.338684803790
H      2.079275760333    -0.593662544404     3.591864752082
C      1.735056766455     1.364886704324     2.750925419284
O      0.899542620752     2.117014237928     2.175978208862
O      3.110806702911     1.653305954783     2.722314654545
C      3.489937928924     2.841688451708     2.014026946798
H      4.594288969506     2.956344756355     2.056242537816
H      3.190814455127     2.776642951490     0.943119383881
H      3.027044692104     3.742636722834     2.476219775129
Pd    -0.221725643705     0.249217125976    -0.352401315191
C     -0.832012664079    -2.379979189400     0.976398443357
O      0.220561042561    -1.667599212181     0.594674650814
O     -0.841479333643    -3.386606179079     1.712278667424
C     -2.163396796645    -1.771961642575     0.402724019124
H     -3.005128606556    -2.181230278081     0.978485925423
C     -2.372753864252    -2.130013394446    -1.049692485624
H     -3.317641627454    -1.672741762419    -1.410568700329
H     -1.531815796839    -1.747410699780    -1.661790085315
H     -2.437666600079    -3.232301541675    -1.163505898591
N     -2.070967429115    -0.292923473158     0.461087060362
C     -2.656686739337     0.361887037808     1.408651246606
O     -3.334776171317    -0.163742448393     2.463218982560
C     -2.634482820756     1.823501716565     1.376518040277
H     -3.073211708634     2.154475830644     0.419883734160
H     -3.230046497791     2.215653057645     2.219768668980
H     -1.590850133192     2.164613546763     1.470435603676
N      1.783676729754     0.464265041459    -0.925960379801
C      2.142636238223     1.266361729127    -1.980901496419
C      3.472564102007     1.527451921975    -2.238102973101
C      4.459295379706     0.976025909677    -1.455524288969
C      4.085680440591     0.152148405896    -0.430719239235
C      2.716890839676    -0.106474230209    -0.198797983223
H      1.389864406364     1.695313085539    -2.628999786600
H      3.735949853726     2.165182846451    -3.066252442773
H      5.508382512301     1.178891504275    -1.654065204866
H      4.804438594019    -0.321700714675     0.208684860106
O      2.503559503572    -0.941627125437     0.790814349590
H      1.534789973458    -1.366723537418     0.863323432853

