# STO-3G

title

0 1
C      2.693520202022     1.234791060575     0.894094896273
C      2.556636583817     2.559276209806     1.390480454197
C      3.510994021486     3.556812072856     1.101012087131
C      4.627087374044     3.267269749031     0.296290055586
C      4.780569577569     1.965506533449    -0.216066955669
C      3.832470181387     0.967822396513     0.081576825318
H      0.983341958890     0.998800592346     3.056654928983
H      1.706173169958     2.845300345380     2.000312028426
H      3.373635220136     4.558019284927     1.504774048808
H      5.360131682971     4.038501443064     0.072070389613
H      5.635993576880     1.722382668725    -0.843283524154
H      3.983130311241    -0.025459141668    -0.333163763152
C      0.783034587820    -1.247731479335     4.207821596591
H      0.224377241330    -0.446634638858     4.684002826916
H      1.857605155973    -1.257914503862     4.376028351448
C      0.194019203786    -2.194059026907     3.438481804136
H      0.794525438750    -2.973241676190     2.988597047349
C     -1.242015184893    -2.262898898505     3.122070250210
O     -2.000566215223    -1.291065631589     3.400771666807
O     -1.751391766345    -3.453382461594     2.573979039800
C     -3.139305095691    -3.435467103832     2.213587133779
H     -3.418514688875    -4.419531470601     1.780451246732
H     -3.778711604039    -3.250078966245     3.105665219667
H     -3.337349482681    -2.655694555877     1.444134569684
Pd     1.217292481769    -0.197820143306     0.895257407767
C     -1.411601263964    -0.873916476288    -0.142139350504
O     -0.357324643749    -1.508199324840     0.371183364442
O     -2.378157597480    -1.400790810167    -0.734094265716
C     -1.383041721542     0.701441150964     0.052522600112
H     -2.415162423335     1.020509418467     0.247635928409
C     -0.870833762670     1.413595374167    -1.177488314546
H     -0.883333906683     2.509421381025    -1.003258142082
H      0.171669823011     1.100798193119    -1.390322760874
H     -1.513445623531     1.176167801990    -2.050923547504
N     -0.436900251787     0.997753936970     1.140263187802
C     -0.689411552547     1.559093728680     2.271901957681
O      0.218024168850     1.595419931128     3.270898261206
C     -1.972573310242     2.209964494713     2.569936833537
H     -2.166451760656     2.974962954822     1.800284666351
H     -2.751267320885     1.427391068866     2.586140947484
H     -1.914251779766     2.682132962333     3.567990078861
N      2.529889547845    -1.794658192235     0.853031655680
C      2.252638661109    -2.824851614079    -0.009438921019
C      2.938056874674    -4.018500112279     0.106183896503
C      3.890332181733    -4.189082617832     1.088032083910
C      4.144133014215    -3.141489640607     1.935186084365
C      3.426617148102    -1.941380049720     1.776905162926
H      1.517413050030    -2.698793692969    -0.795085376270
H      2.713257209836    -4.824146241366    -0.574022225927
H      4.425617409932    -5.129749310174     1.187551924026
H      4.868106961126    -3.207010947191     2.723005096776
O      3.726958858405    -0.994381551206     2.661982260180
H      3.264091060209    -0.140708577687     2.428677639275

