# STO-3G

title

0 1
C      1.170533158015    -0.912394429530    -0.160216346473
C      1.395112908626    -2.251160220575     0.242473473147
C      2.093218578680    -2.540562792791     1.434756808441
C      2.576750641382    -1.504911125549     2.253851820158
C      2.352315189963    -0.170110155426     1.869655338473
C      1.659371309721     0.121515924591     0.678421992001
H      0.744804360935    -2.400270885622    -2.438535644352
H      1.033273488214    -3.090239708668    -0.343019075177
H      2.252004210897    -3.579731224932     1.717435479099
H      3.113118557324    -1.733064998649     3.171952777341
H      2.708357711488     0.649083030164     2.491966784425
H      1.498196792970     1.163621345086     0.416001909464
C     -2.048395711260     2.547903330534    -0.543404873571
H     -3.025720106353     2.177915069303    -0.243188178870
H     -1.956093006982     2.857884633075    -1.578179172682
C     -0.988845382593     2.617464024874     0.294514873612
H     -0.039313816738     2.983871607755    -0.078496987265
C     -1.009117197150     2.231663484838     1.715158930546
O     -2.029180231579     1.672423764550     2.201733152567
O      0.153809319238     2.424934017148     2.481490463046
C      0.107855574381     1.920858619494     3.823860958602
H      1.072503526435     2.134761173478     4.331798278436
H     -0.706927731606     2.410827755371     4.404097370318
H     -0.047882260809     0.817533225587     3.824890528550
Pd     0.029997137446    -0.320984170369    -1.727052386493
C     -2.833498522059     0.034758751108    -2.441852125493
O     -1.640047059948     0.447219192992    -2.896544892468
O     -3.933447415018     0.555294995171    -2.696685516798
C     -2.742218994842    -1.242300512632    -1.516729377809
H     -3.560223933436    -1.907258364271    -1.825602093423
C     -2.916331849989    -0.907237653797    -0.055080887591
H     -2.922362014094    -1.842426517042     0.541607805322
H     -2.072924551210    -0.279629661049     0.296051700728
H     -3.872127975044    -0.366987631840     0.108473090926
N     -1.400616211939    -1.814424161964    -1.667176294958
C     -1.077062127584    -2.957543481424    -2.162839226531
O      0.192769793525    -3.233248767695    -2.519902603188
C     -2.046337367232    -4.042045641863    -2.371579574200
H     -2.542856721912    -4.250639684290    -1.408691719655
H     -2.766445741336    -3.722912473361    -3.142840770126
H     -1.508249733163    -4.943379651651    -2.719848968429
N      1.379601064236     1.148092935362    -2.342790793637
C      2.730606939533     0.977579392199    -2.171441034561
C      3.609735272219     1.970962208421    -2.548712927068
C      3.149652120891     3.135639940904    -3.117931238661
C      1.803138161080     3.268983220200    -3.321771179101
C      0.930195702083     2.226618315729    -2.942270125983
H      3.116765633017     0.065139709509    -1.733904320809
H      4.667048683158     1.827857681843    -2.394906150058
H      3.839356390718     3.921170827211    -3.415492015184
H      1.384271283182     4.136926037582    -3.791557483711
O     -0.323866008448     2.453419132419    -3.244553168741
H     -1.021653580949     1.651868369422    -3.148036319314

