# STO-3G

title

0 1
C      1.450716092175    -0.941821410855    -0.471234891979
C      1.539551387261    -2.281276867470    -0.021694091786
C      2.394439867028    -2.632038156197     1.045419099027
C      3.174448046835    -1.656730730768     1.690687013401
C      3.087797406128    -0.318992956011     1.261935258323
C      2.237550866690     0.033366067691     0.195738814359
H      0.549116990654    -2.377991698707    -2.537017065181
H      0.951641849505    -3.073621796137    -0.473428923388
H      2.442819440761    -3.670704484193     1.367473406115
H      3.830950314408    -1.930968943460     2.513255544651
H      3.675346627098     0.452467272615     1.756900194170
H      2.187147175653     1.078328208373    -0.102025117981
C     -0.726272423540     2.416246578537    -0.050526636895
H     -1.707084827026     2.685842735488    -0.436850014788
H      0.068532680079     2.377584257176    -0.787830190221
C     -0.474325627599     2.137862907379     1.249122243838
H      0.523412397732     1.850390726510     1.548966197287
C     -1.471715369438     2.168832323835     2.331904212741
O     -2.687953396962     2.363828150432     2.064880783452
O     -1.050783147705     1.873255614811     3.640313701211
C     -2.075477168253     1.878693963408     4.644440216325
H     -1.625454098896     1.637929153319     5.631596165692
H     -2.554601256351     2.881671307118     4.715595325657
H     -2.852869483201     1.113154376995     4.420690129924
Pd     0.125667271081    -0.227561460932    -1.832550295621
C     -2.758660651940     0.461153957103    -2.104949486929
O     -1.591531387994     0.773561584419    -2.689186899101
O     -3.814993296282     1.110071741371    -2.194318006833
C     -2.705641003402    -0.878326366200    -1.272307278776
H     -3.607817685301    -1.439780629846    -1.551593640840
C     -2.731338588526    -0.636300706721     0.217291383886
H     -2.854627025955    -1.602308008339     0.748061885454
H     -1.773743093914    -0.186140608026     0.539978241626
H     -3.570397012589     0.039159738518     0.488633135416
N     -1.444322583072    -1.568087625154    -1.572294138536
C     -1.288479016117    -2.739589119086    -2.084240299618
O     -0.095387662335    -3.146147795173    -2.560141738878
C     -2.377293738571    -3.722058316907    -2.182195988039
H     -2.796675299980    -3.874833252107    -1.173305299908
H     -3.133358764241    -3.336534558724    -2.885774297224
H     -1.968780548228    -4.675153427632    -2.566987848507
N      1.516448751132     1.052477141422    -2.723770669574
C      2.829078345463     0.671624898218    -2.847031416962
C      3.744198796067     1.515617972434    -3.440164775347
C      3.353722585810     2.739982849804    -3.931342667842
C      2.032705837176     3.084444670345    -3.837098337574
C      1.115720977498     2.190915112576    -3.243379315705
H      3.157127914476    -0.290448675875    -2.472354739108
H      4.774472027354     1.208102705882    -3.518269941780
H      4.072400380244     3.408568607249    -4.398082659510
H      1.658704574584     4.009985366671    -4.228760145626
O     -0.123608867441     2.613569123309    -3.264957330156
H     -0.897903695758     1.919075233586    -3.027903467079

