# STO-3G

title

0 1
C      1.259896605156    -1.158919142274    -0.479099938430
C      2.529907072528    -1.553402656734    -0.978550494880
C      3.546069945871    -2.003182346061    -0.108229673429
C      3.315592222987    -2.060079086952     1.278846611015
C      2.059101860206    -1.677836544611     1.790271632680
C      1.041349994699    -1.236795642493     0.921861579652
H      0.520461755466    -2.797426662666    -1.076336610706
H      2.730352096862    -1.506232185577    -2.047960458074
H      4.508131072427    -2.307414358873    -0.515947767514
H      4.098429144934    -2.404130908280     1.950808642965
H      1.868557425279    -1.725224040226     2.860703908455
H      0.075858619220    -0.962587853962     1.343125849806
C     -1.405049920835     2.739755379115    -0.520791064344
H     -1.836258927150     3.736006758323    -0.456488692343
H     -1.435654550816     2.264302663739    -1.497819452287
C     -0.856762507393     2.101035516875     0.539176545661
H     -0.442228677047     1.111888054663     0.400589979041
C     -0.765163448953     2.640315021736     1.906021417287
O     -1.230892115188     3.780590655931     2.172646928532
O     -0.173649152061     1.840115130700     2.899386919748
C     -0.107274334441     2.416981960547     4.211243000464
H      0.379248059964     1.698866695872     4.905985348067
H      0.495253851215     3.353740644208     4.201703701671
H     -1.127768047665     2.638827397516     4.598567695585
Pd    -0.121757587044    -0.334075108085    -1.713741431700
C     -2.823503850482    -0.089509211916    -2.952704156944
O     -1.606335142425     0.465895442051    -2.994294613195
O     -3.789010810061     0.210083301181    -3.675222205031
C     -2.950356670022    -1.189971358678    -1.848336446952
H     -3.684599250138    -1.907603006666    -2.235708213554
C     -3.475525998609    -0.620677477553    -0.549052287980
H     -3.597153833628    -1.434085757654     0.195399640172
H     -2.761613681021     0.123074831168    -0.146401479654
H     -4.458663020228    -0.131519556455    -0.713958022993
N     -1.623795894815    -1.782804555045    -1.561151243958
C     -1.374669531200    -3.048072664133    -1.443391429198
O     -0.151262386871    -3.529540743848    -1.212769653929
C     -2.421506528452    -4.080449869516    -1.550231636185
H     -3.195550874417    -3.877359203901    -0.791801428074
H     -2.827558020412    -4.061812231551    -2.575051767300
H     -1.971248459986    -5.072733167014    -1.357392217051
N      1.173987947924     1.282069287401    -2.119279542957
C      2.151432004671     1.673718028160    -1.236013201917
C      3.063726090490     2.646036262251    -1.588685823815
C      3.005973360593     3.246879363572    -2.823451726897
C      2.003954231474     2.874982841159    -3.676104794109
C      1.074280586715     1.889753647141    -3.278898632826
H      2.212400443746     1.235787492134    -0.248576766255
H      3.827921017169     2.933962438421    -0.885274074628
H      3.724497050046     4.011711934493    -3.106180497794
H      1.882825919360     3.328628525548    -4.639919451214
O      0.124117436931     1.684821039925    -4.159842867223
H     -0.725890712373     1.163961778909    -3.822364300601

