# STO-3G

title

0 1
C     -0.439011023945    -1.825350036815     0.840218637476
C      0.212055039584    -2.974204053982     0.321703642701
C     -0.423754296651    -4.235081436064     0.331653014214
C     -1.715361254845    -4.373103637762     0.871036688368
C     -2.371993987443    -3.240923890520     1.395621741207
C     -1.743325805605    -1.980437074860     1.376504049656
H     -0.643135644992    -1.272334994580    -1.142753695193
H      1.218726532859    -2.898562031424    -0.087536052646
H      0.094349258590    -5.097988819219    -0.083326650248
H     -2.204867069420    -5.344197015307     0.880192744107
H     -3.372261060015    -3.338155127732     1.813479923121
H     -2.271780066136    -1.117617992310     1.777148871347
C      2.447450569154    -0.321291539085    -1.457214293945
H      2.915424720221    -1.108814799463    -0.868557637261
H      2.584308562632     0.686468712522    -1.080459317175
C      1.745171486529    -0.555825380745    -2.590110342229
H      1.292986285819     0.271324702935    -3.119590716896
C      1.500654293513    -1.882430268984    -3.179837519026
O      1.993905239219    -2.912216022636    -2.641091882278
O      0.813833818945    -1.958886344631    -4.405038493796
C      0.534796326598    -3.282538955588    -4.880891892366
H     -0.019016954572    -3.218747154045    -5.841762756276
H      1.478206545794    -3.847005227716    -5.058180506532
H     -0.098251858771    -3.836465909729    -4.150539705071
Pd     0.460779828467    -0.020028669256     0.900150030028
C      0.440154796787     2.922571784367     0.465167663589
O      1.284595972587     1.949936690490     0.821196007438
O      0.704722178438     4.132431660475     0.360290200693
C     -1.004975551706     2.377222831016     0.171374182767
H     -1.453714164618     3.073956522159    -0.548085918929
C     -1.857090507421     2.353099569849     1.420051469841
H     -2.871327775473     1.977860374118     1.171071424837
H     -1.402604268108     1.680236138738     2.175387709239
H     -1.942712279863     3.375794445020     1.843869231143
N     -0.905840451741     0.981418739400    -0.304910356618
C     -1.380199839778     0.506938463119    -1.408852129673
O     -1.162140572703    -0.749493934986    -1.813526450387
C     -2.195267169736     1.311920151397    -2.334101200137
H     -2.510151713159     0.671564723378    -3.179266075483
H     -3.085765052159     1.668370277824    -1.790784115451
H     -1.581523112573     2.144920916230    -2.717506476496
N      2.022925158966    -0.727296430293     2.110301139555
C      1.884109106928    -1.848357672752     2.891350490061
C      2.974911874130    -2.381965124587     3.545606544577
C      4.214945660659    -1.798671945461     3.432831048315
C      4.328488097478    -0.661465038134     2.681502309522
C      3.190340130430    -0.130397604228     2.037379825135
H      0.917515157559    -2.319796835341     3.012368517616
H      2.850225223553    -3.269451412984     4.144466497752
H      5.078215250454    -2.220344496375     3.940958938908
H      5.261419199905    -0.144270717110     2.573770881469
O      3.429688719461     0.984901687153     1.387639844767
H      2.595264583191     1.552640875357     1.086129096125

