# STO-3G

title

0 1
C     -0.448011409445    -1.829987702620     0.850970405350
C      0.155211455168    -2.984399782945     0.299258799444
C     -0.531748153257    -4.215172150046     0.275923984569
C     -1.832041939868    -4.316045244599     0.810488432375
C     -2.437036046689    -3.174009214579     1.370125387470
C     -1.750176026140    -1.940622677585     1.391254987002
H     -1.495550393365    -1.232759792857    -2.494434065277
H      1.156135669520    -2.929710412759    -0.125638043223
H     -0.049189064509    -5.089545372508    -0.159273705962
H     -2.360110497891    -5.267169050667     0.795661456358
H     -3.438286067877    -3.240355934718     1.793297578619
H     -2.238292400356    -1.071454749741     1.829049427181
C      2.653892859337    -0.288278064368    -1.414568135476
H      3.097278179188    -1.092608287611    -0.829919622258
H      2.831366080299     0.714630077253    -1.042690081805
C      1.914323893514    -0.502999463325    -2.525511957040
H      1.474815054784     0.338076841133    -3.045359455578
C      1.598037176622    -1.825611575135    -3.089070981990
O      2.111584315144    -2.864386672206    -2.586936294829
O      0.848363829993    -1.888101045659    -4.278903988074
C      0.521929416043    -3.206475339073    -4.738973156128
H     -0.078898948949    -3.133207758099    -5.670319755351
H      1.445266148399    -3.786952861480    -4.964162546271
H     -0.081020387441    -3.749796762091    -3.975901771169
Pd     0.500683969430    -0.066981350888     0.862626210841
C      0.444113076904     2.885606554947     0.425106263517
O      1.320797571532     1.931121276815     0.723517721301
O      0.661576452559     4.107460336962     0.331668703127
C     -1.003423540121     2.310031677236     0.175089522606
H     -1.496881155984     3.010491628537    -0.511223353414
C     -1.802714294474     2.238384454644     1.456233293010
H     -2.814406712353     1.836262678765     1.241448902535
H     -1.297657516133     1.567969501027     2.180935697509
H     -1.901450162054     3.250791381428     1.901207581733
N     -0.882803871769     0.926509193560    -0.326682134130
C     -1.346424218890     0.465017804100    -1.428754018631
O     -0.956529033760    -0.772215444381    -1.825078869526
C     -2.235000342773     1.255144560663    -2.311451791475
H     -2.532444402830     0.642522498284    -3.180230659167
H     -3.130570428704     1.538133501840    -1.733433303045
H     -1.681712621071     2.140064320212    -2.670682467478
N      2.047740851433    -0.753812123403     2.109686574557
C      1.915291813962    -1.891648009637     2.867910316298
C      2.995219828793    -2.399162753912     3.560233437853
C      4.218694189908    -1.774666160351     3.507004031764
C      4.325588300890    -0.624682889020     2.774954602784
C      3.198197013948    -0.122320543689     2.089655270536
H      0.961694065924    -2.396159503895     2.946198900228
H      2.875006140840    -3.298598377081     4.141826145303
H      5.073741580878    -2.175378087108     4.045062306592
H      5.245317183620    -0.077593283282     2.710519836174
O      3.434533266072     1.006519276453     1.460150660784
H      2.610078389011     1.547992548271     1.098631901405

