# STO-3G

title

0 1
C     -0.552727544245     1.874617580811    -1.567190514777
C      0.115784234136     3.096794407994    -1.337278283983
C     -0.247693726259     4.243598375502    -2.074820555413
C     -1.265215112057     4.170234835239    -3.045313488383
C     -1.930414575806     2.948545266549    -3.268362805894
C     -1.580326020792     1.799122954154    -2.529363810661
H     -0.635021098975    -0.665484542138     2.452894966997
H      0.897346999187     3.169851470895    -0.581790475352
H      0.261351801947     5.186315114963    -1.883496001479
H     -1.542085592570     5.055089954552    -3.613770773812
H     -2.726097324493     2.888365147167    -4.008179170820
H     -2.116931003742     0.868258066280    -2.692170631152
C      2.030235272925    -0.133759603310     3.277992320876
H      1.915416348066    -0.186362150432     4.357068187249
H      2.453818781751    -1.001927198322     2.781794999138
C      1.658301638559     0.942687942724     2.550691313428
H      1.763296828176     0.925708115504     1.473031723006
C      1.057545326715     2.166117076215     3.097308639714
O      0.669543948755     3.053825646627     2.288709554967
O      0.968631568886     2.354247361493     4.489085652875
C      0.345173869580     3.571544505388     4.919852686295
H      0.331837026775     3.603080514525     6.030602121247
H      0.911239708597     4.457584766337     4.553292436350
H     -0.706557385902     3.625261792558     4.558947237493
Pd    -0.093772398450     0.261317309921    -0.499985419805
C     -0.799230908674    -2.383889261332     0.631428012329
O      0.184986781119    -1.483859697081     0.899436393240
O     -0.670961541748    -3.615897475248     0.619388037040
C     -2.161423628026    -1.645202480287     0.403601385453
H     -2.813545984302    -1.938963143631     1.242209143604
C     -2.822214803301    -2.062181633318    -0.887030745367
H     -3.810880075058    -1.564908582054    -0.974702202888
H     -2.192924567827    -1.757580671180    -1.746601977768
H     -2.970015825661    -3.162465231604    -0.906451647096
N     -2.058025910731    -0.164973041314     0.356114050692
C     -1.806359633667     0.520150695040     1.450878156288
O     -1.321545342016     0.038788030584     2.621877198878
C     -2.224487951200     1.924783774523     1.482162163452
H     -3.285685231878     1.969297522863     1.183686761882
H     -2.100356756557     2.316304525369     2.507064508361
H     -1.607333200242     2.511741217763     0.787516664777
N      1.846893945287     0.105827898110    -1.321700427716
C      2.194046641711     0.753651041847    -2.483490441143
C      3.486763101043     0.692475278008    -2.959261538566
C      4.448934449473    -0.022587860738    -2.287637058563
C      4.082317931565    -0.688451412675    -1.151786323223
C      2.748186754068    -0.620375066358    -0.695161542867
H      1.460429569376     1.309511033347    -3.050491117714
H      3.741456977088     1.213188593865    -3.868229762097
H      5.469728632491    -0.070175311234    -2.657919780795
H      4.779893758779    -1.282504170112    -0.594574171306
O      2.531813966105    -1.334102178479     0.379617827325
H      1.514026295132    -1.509253617688     0.682979409853

