# STO-3G

title

0 1
C     -1.076574323862    -1.641159824100     0.721228784914
C     -0.929579210617    -2.823526787872    -0.050542437804
C     -1.779773783167    -3.932927931803     0.152558148510
C     -2.784488684466    -3.885163859122     1.135712295641
C     -2.941252990277    -2.717994997498     1.911246450849
C     -2.100059779267    -1.607224350477     1.703953836999
H     -1.850339641977    -0.835213434370    -0.975744103507
H     -0.147728918326    -2.892157951482    -0.805690126914
H     -1.652021851246    -4.824086684110    -0.459412678238
H     -3.438762240809    -4.739586136969     1.292432614242
H     -3.718658646803    -2.671387070701     2.671480821715
H     -2.242280536921    -0.713700311452     2.308565275509
C      0.653181404598    -0.338209363601    -2.595482784750
H     -0.125864151967    -1.086827593703    -2.720028736799
H      0.318241997238     0.691369496797    -2.511938434621
C      1.971057326596    -0.636760058998    -2.542005033324
H      2.697643083262     0.147664205905    -2.391415371798
C      2.531035472530    -1.998390257830    -2.588714536702
O      1.761479654962    -2.996274378431    -2.649307623068
O      3.923569951610    -2.158851902576    -2.480197151602
C      4.392862882022    -3.510269711372    -2.381885909082
H      5.500830913373    -3.508888820791    -2.299915189912
H      3.977142255735    -4.005371724654    -1.474813885763
H      4.110344223783    -4.094392299407    -3.287003025581
Pd     0.184238498207    -0.076664068527     0.524914746120
C      0.708493636358     2.839763144399     0.244025347791
O      1.364234127555     1.676786116123     0.227798297452
O      1.203386111679     3.972677612060     0.113712177845
C     -0.837372491134     2.646066583404     0.452222467564
H     -1.321956820058     3.497762125423    -0.042029217473
C     -1.208913402077     2.659885442725     1.917719855450
H     -2.306542285991     2.536506023548     2.024805037151
H     -0.702558928988     1.825242153611     2.444061001588
H     -0.905414180378     3.622827326455     2.379791078479
N     -1.233811155521     1.323708934189    -0.075181997381
C     -2.151631966305     1.086853387779    -0.952896397049
O     -2.395459292547    -0.137355558001    -1.436904313722
C     -3.013091316903     2.144698728669    -1.507362396817
H     -3.739588361759     1.684139372754    -2.202701729253
H     -3.555140087835     2.621932416140    -0.674281977412
H     -2.385010174723     2.864549287346    -2.059687698026
N      1.854711193899    -1.215111604675     1.127953907821
C      1.714502258774    -2.379231355851     1.844068761081
C      2.810680675176    -3.174613308462     2.107773332980
C      4.060924828745    -2.814248573148     1.665297709117
C      4.190019119735    -1.635791929603     0.985457695801
C      3.052308955333    -0.834964531211     0.745600216799
H      0.748236796181    -2.682006700481     2.224109619840
H      2.678324476021    -4.089679947999     2.661592087433
H      4.925495253444    -3.442398388463     1.862279766616
H      5.137312104473    -1.290527681509     0.620875059152
O      3.324537621793     0.278815003662     0.110049069347
H      2.571113728099     1.016685379179     0.078409294460

