# STO-3G

title

0 1
C     -0.081028007509     1.782913631154    -1.952469210326
C      0.737413767148     2.868005099018    -2.359357591170
C      0.471399496758     3.579499971258    -3.549615726556
C     -0.613590323827     3.217505873741    -4.368438689519
C     -1.438983203219     2.142495964237    -3.982402628381
C     -1.179452306616     1.441634991672    -2.788527378699
H     -0.947559968660     2.799679694918    -0.373075471802
H      1.586694376637     3.161882263275    -1.748943124833
H      1.113402149133     4.412552707673    -3.831939825445
H     -0.815673515158     3.764071498463    -5.286950066534
H     -2.284956502333     1.855500097904    -4.604302784071
H     -1.840909441986     0.625476149459    -2.505634604848
C      0.746164727983     2.716703562453     2.092994600082
H     -0.241606424963     3.034117947987     2.412788679804
H      1.166188291248     3.249000861117     1.244446376618
C      1.415483510635     1.687743064997     2.657177826272
H      2.386149665272     1.399753503635     2.276056999290
C      0.901599852133     0.840788421324     3.742011928730
O      1.711527921177     0.116843076135     4.380661790054
O     -0.459479302882     0.914126986003     4.105542756846
C     -0.876886376528    -0.004635525569     5.125334552631
H     -1.961795004402     0.126188615241     5.321845609171
H     -0.705141092357    -1.057760896822     4.802515857904
H     -0.325223223871     0.181211292006     6.074643907499
Pd     0.295584277574     0.561421860847    -0.365344624249
C     -0.623177673440    -1.409716572770     1.579232160565
O      0.520076474602    -0.941019856338     1.095881281048
O     -0.761882279589    -2.353154033647     2.392591897320
C     -1.921688457378    -0.685350649818     1.039072331148
H     -2.628189390886    -0.653173807863     1.878977654985
C     -2.549642082213    -1.459796955693    -0.098301246879
H     -3.464431494656    -0.937709823170    -0.446683700702
H     -1.832882781321    -1.529992303269    -0.941540354109
H     -2.820258060390    -2.482023819954     0.239892834782
N     -1.565011822143     0.643998462451     0.502800069514
C     -2.155261045032     1.766833183543     0.741202105535
O     -1.724340627316     2.936218469299     0.241597975048
C     -3.335749390500     1.869170279556     1.613928287419
H     -4.129849985545     1.222741827015     1.205913358781
H     -3.033273561361     1.565241119152     2.630889371342
H     -3.681633042847     2.919438626664     1.632207870681
N      2.255853481944     0.255667410920    -0.896079545168
C      2.494794436486    -0.993951312422    -1.401953511552
C      3.791951166055    -1.403798804912    -1.640521847535
C      4.850441069543    -0.568396573399    -1.360647768082
C      4.581559884206     0.675493365248    -0.845429244683
C      3.229826173132     1.042518246042    -0.621567956695
H      1.664594306493    -1.655811853359    -1.620046408838
H      3.970745108038    -2.389856270221    -2.037158789685
H      5.873087379139    -0.888787171520    -1.542537897461
H      5.375657282522     1.354866306133    -0.617224111465
O      2.969597155018     2.264654868211    -0.100815579699
H      3.737911468201     2.755417292949     0.240171023752

