# STO-3G

title

0 1
C      2.682036418885     1.159395578788     1.456577396854
C      3.049300841618     2.165165259819     0.532782231051
C      3.866252183008     3.245692606446     0.930313721996
C      4.330282138997     3.336230950680     2.256778400043
C      3.969443185676     2.337678900803     3.183742984178
C      3.153801960577     1.258154105686     2.786861736043
H     -0.259569079325     2.692851121386     2.866774225896
H      2.701543130271     2.116533707763    -0.497874591823
H      4.139083521682     4.010280213629     0.204455250194
H      4.961184801191     4.168045467657     2.563014970952
H      4.318795380426     2.398885313315     4.213556255351
H      2.877119056990     0.504521323423     3.522204562871
C      0.138277901035    -1.133240099400     3.560912628605
H     -0.061610393526    -0.076103990966     3.423275801161
H      1.131841315828    -1.382838845931     3.926926658951
C     -0.742778906225    -2.115940298841     3.263280842928
H     -0.448317863683    -3.149354599158     3.378273959529
C     -2.083274225373    -1.915847574899     2.687311977886
O     -2.481830961598    -0.756048874410     2.384060141255
O     -2.890062874571    -3.044737574822     2.462794781326
C     -4.106463566009    -2.813218810351     1.739389551925
H     -4.649286830350    -3.774937704033     1.617599248900
H     -4.767041087766    -2.105399057909     2.288872380401
H     -3.889218671382    -2.411201960199     0.723397744183
Pd     1.536643129342    -0.374072372777     0.862914385828
C     -0.868080372056    -1.431180778255    -0.549912177442
O      0.159697596005    -1.882828888718     0.159754743888
O     -1.800058604368    -2.100432770373    -1.036420422983
C     -0.823387890381     0.134499821000    -0.747775414996
H     -1.862169288818     0.451241518470    -0.905954023444
C     -0.004469856157     0.520957555398    -1.958107626815
H     -0.003584557141     1.625140199983    -2.068200112800
H      1.040819803379     0.172835336630    -1.833380804783
H     -0.437203586038     0.064515612550    -2.872856549102
N     -0.158310070076     0.740657350635     0.422960043851
C     -0.673954223232     1.596632622269     1.228639678014
O      0.001067859868     1.895242863583     2.371555031799
C     -1.974451230113     2.256253878659     0.969088070875
H     -1.921326488999     2.761043976059    -0.009494790675
H     -2.758939338822     1.480026193842     0.993390000379
H     -2.186051951964     2.995513768614     1.760722254870
N      3.041118743293    -1.784604871762     1.246670229051
C      4.366176953770    -1.430601338761     1.314581533291
C      5.310361858993    -2.341643338633     1.741067264426
C      4.942984898567    -3.618790811073     2.094324604252
C      3.624248008427    -3.965104643242     1.987151969687
C      2.684630974903    -3.014877609058     1.531536878364
H      4.687722257494    -0.438553140557     1.025605866811
H      6.344799364827    -2.044115628339     1.797166133272
H      5.683138788241    -4.338651964619     2.433689724157
H      3.275900135324    -4.951637207935     2.221097684035
O      1.464679531907    -3.491920185083     1.434656062293
H      0.767671335823    -2.914766586115     0.906476181859

