# STO-3G

title

0 1
C     -0.148281170578     1.681039085736    -1.891461324864
C      0.713361983560     2.785541236815    -2.119856293399
C      0.549197982563     3.614411059101    -3.251388764075
C     -0.473127771185     3.348842436218    -4.180428168978
C     -1.336724060282     2.254593371461    -3.968410228561
C     -1.179300029382     1.432967272722    -2.835200738264
H     -0.995714466773     2.781209704337    -0.415419347568
H      1.522863527421     2.998772170237    -1.423512558052
H      1.216894031206     4.460931772650    -3.400711885915
H     -0.600184668589     3.985536692967    -5.053000838967
H     -2.132844219944     2.044742609954    -4.680358565180
H     -1.862163878737     0.598765276047    -2.685590354471
C      1.764174503189     2.380646790865     1.710281235393
H      2.511452506404     1.627447822515     1.944854125668
H      1.965879703807     3.001329882907     0.840787537167
C      0.617189460217     2.523944870877     2.411020689950
H     -0.123723240513     3.247729714910     2.099857002159
C      0.242311171828     1.697523225254     3.568161090860
O     -0.934707272332     1.779091568651     4.014513725508
O      1.177522181522     0.808273274938     4.127138898638
C      0.708342856876     0.001571571231     5.216074945736
H      1.528436714029    -0.665997102705     5.557152179443
H      0.393455669554     0.637605867104     6.073476336339
H     -0.143450688940    -0.640292494977     4.897311132803
Pd     0.130702344018     0.408843553305    -0.346327920535
C     -0.864912385747    -1.251040702409     1.903007643456
O      0.286536615066    -0.872666068353     1.343320748065
O     -1.003063266379    -2.055626371565     2.841503512002
C     -2.113347329071    -0.564035306325     1.237091352455
H     -2.853994080571    -0.444387711106     2.038439157629
C     -2.707969281375    -1.430414938744     0.149680603800
H     -3.599196499530    -0.928651495804    -0.280646158336
H     -1.962364363486    -1.588421295727    -0.655781169935
H     -3.011861027690    -2.413162972134     0.567693186395
N     -1.699282415689     0.702362228003     0.595062860843
C     -2.246699691367     1.861079249738     0.759013424829
O     -1.760048440353     2.976482790949     0.196142019736
C     -3.445249351978     2.067106322362     1.588711162930
H     -4.256100943286     1.429647615903     1.200442386743
H     -3.188863899831     1.821323138620     2.633893789291
H     -3.746658783681     3.129591470253     1.531714735008
N      2.052310606545    -0.105435697996    -1.011713387630
C      2.418354433692     0.009216773156    -2.330233032178
C      3.729388091408    -0.190962181280    -2.709745264425
C      4.686461132813    -0.519898913284    -1.778606345594
C      4.296947434101    -0.667842653614    -0.475905318216
C      2.944106284928    -0.473898634341    -0.122264250780
H      1.683356295296     0.251013302451    -3.087083513677
H      4.001676213182    -0.086326900547    -3.747424561758
H      5.721164516432    -0.675284207794    -2.072726567893
H      4.987177742211    -0.950711436018     0.294304910114
O      2.697536685128    -0.693361155757     1.148513617737
H      1.688556706888    -0.811595610445     1.424200084904

