# STO-3G

title

0 1
C     -0.060099374716     1.918711986305    -1.899090615310
C      0.838150784503     2.939905229946    -2.302669194467
C      0.594409572575     3.714163472621    -3.458102580979
C     -0.547257871041     3.479964939804    -4.245687251344
C     -1.451569969010     2.469365173945    -3.862849346901
C     -1.213636074647     1.706240107089    -2.703137193970
H     -0.783087225225     2.952585428355    -0.236407926054
H      1.732374124464     3.131252002168    -1.717591297119
H      1.298808774886     4.495971925616    -3.738222465601
H     -0.732136084868     4.074959672391    -5.137341279364
H     -2.341858788241     2.280916766754    -4.460105771670
H     -1.936936536683     0.943166391818    -2.423222560601
C      1.428958136821     2.296549771147     2.139345282327
H      2.165606059793     1.497819393689     2.175755936064
H      1.598726062578     3.065288188489     1.390836797758
C      0.321552594650     2.303489153681     2.911259037410
H     -0.420400419320     3.079299692836     2.775367486233
C     -0.021456972855     1.254810392096     3.881641729287
O     -1.194109319323     1.222530615205     4.345757907788
O      0.953486979414     0.325570775650     4.287742528242
C      0.496627652062    -0.729081090139     5.145523083016
H      1.345706339334    -1.406503179620     5.378148919945
H      0.100408352983    -0.319866203594     6.101751258369
H     -0.292778206766    -1.333331481639     4.643851223113
Pd     0.250980082563     0.617741810231    -0.359037363215
C     -0.804596064317    -1.340805028424     1.520606360059
O      0.369809171830    -0.933513167439     1.056051931406
O     -1.008351211947    -2.317726163335     2.278175740876
C     -2.048219742231    -0.496432627748     1.020505158890
H     -2.746868107342    -0.439240449890     1.865807557205
C     -2.737863936452    -1.175813853863    -0.142071723205
H     -3.610222017689    -0.571689622521    -0.465481944574
H     -2.031280615197    -1.270298185981    -0.991351756456
H     -3.087139840539    -2.185523023475     0.159700165380
N     -1.587919748597     0.822190833872     0.535553400641
C     -2.111296808505     1.974820813265     0.785868000491
O     -1.564797425339     3.125779196660     0.361632110424
C     -3.338384984679     2.131617253137     1.583021147373
H     -4.144872238170     1.555370448989     1.101589476288
H     -3.134308432374     1.775061896907     2.607398489517
H     -3.612779770697     3.202168377004     1.617668374837
N      2.145782985483     0.106435208844    -0.970721543672
C      2.207423345483    -1.178699875622    -1.440185989299
C      3.431717840088    -1.749178996516    -1.728436222630
C      4.595173995926    -1.038097325736    -1.537123817592
C      4.503946957180     0.244665936389    -1.056763307260
C      3.219747949358     0.778857033035    -0.777479708545
H      1.294208609377    -1.742910045486    -1.590824311273
H      3.469984085893    -2.761401920689    -2.096651256956
H      5.560928944100    -1.483441252317    -1.761964198316
H      5.383374247693     0.834213191970    -0.904030087498
O      3.139685163998     2.042848651176    -0.301748528465
H      3.970605089353     2.426187870245     0.029112724796

