# STO-3G

title

0 1
C     -0.212447539357     1.782045446650    -1.063213541337
C      0.731856429388     2.804773008527    -0.784900962271
C      0.580016265976     4.101350225734    -1.323982373334
C     -0.511552620713     4.397091509276    -2.159986914360
C     -1.456178558022     3.390812451385    -2.448706672593
C     -1.310911267106     2.099954603555    -1.904071119699
H     -0.813342018497     2.095261130568     0.817014928129
H      1.591713233068     2.600498385260    -0.148536762721
H      1.313625892649     4.869473198019    -1.086838985126
H     -0.629130937430     5.394656721666    -2.576949868208
H     -2.305877955734     3.611764492964    -3.092067046127
H     -2.056344050791     1.340771892781    -2.133062104810
C      1.940218391583     0.413635486187     2.050140028080
H      2.469344006735     1.087243335830     1.378643047337
H      2.104505056656    -0.643863531400     1.874538240594
C      1.135927681346     0.840059558931     3.050272832214
H      0.628101423294     0.115485134133     3.673897717789
C      0.845612844606     2.249041675644     3.355090213794
O      0.124795080647     2.517289543019     4.354321716355
O      1.435336938551     3.266598646275     2.580913662786
C      0.882207627662     4.576499035693     2.761579196143
H      1.403697848878     5.291810421879     2.091192858220
H     -0.200775456982     4.581236431700     2.497433211330
H      1.011477558405     4.921566456128     3.812340731653
Pd     0.018258837825    -0.106925361100    -0.384012530320
C     -0.984606667790    -2.549020930741     0.989603404385
O      0.137182029832    -2.061076151948     0.451830894688
O     -1.119890255744    -3.654864886696     1.540509070507
C     -2.189307433652    -1.551251464872     0.856256077177
H     -2.860318937452    -1.771618841719     1.696275494515
C     -2.946202324947    -1.760353750949    -0.436137434858
H     -3.800673172806    -1.053980458715    -0.485480168975
H     -2.277092222082    -1.572284082187    -1.300292989809
H     -3.331970058217    -2.800158644090    -0.489465812979
N     -1.674877147069    -0.165254487645     0.829542077653
C     -2.054473229493     0.809278813188     1.588536483175
O     -1.494408202493     2.022650990226     1.542876886954
C     -3.120492092339     0.667198538083     2.594207893471
H     -4.047474892569     0.358913244458     2.083425733814
H     -2.792754260448    -0.069208664505     3.346513661337
H     -3.277839202711     1.643088581775     3.092210816969
N      1.796415364522    -0.371766698506    -1.475128361893
C      2.090110634203     0.392274076127    -2.578344427001
C      3.329127225721     0.305116035947    -3.178241132027
C      4.286022885894    -0.553049112146    -2.690503276269
C      3.965296216568    -1.334097158733    -1.614852447968
C      2.683237600280    -1.234102354781    -1.032561820028
H      1.352459645655     1.063380457303    -2.997961168579
H      3.545516148187     0.920169980664    -4.036646001091
H      5.264907056482    -0.621365104733    -3.157877242744
H      4.656779687399    -2.042589138950    -1.203038593184
O      2.494505274470    -2.069639556136    -0.038513303575
H      1.497038867827    -2.212302792189     0.289216401035

