# STO-3G

title

0 1
C      2.278084982046     0.977584177480     1.636571599872
C      2.555430237216     2.197184253806     0.968720779807
C      3.090370635259     3.296885271425     1.668192448279
C      3.351211558879     3.203317434009     3.050539631071
C      3.073880458802     2.002083658619     3.728071292435
C      2.546217070929     0.895296807002     3.027315429507
H      0.257048320385     0.946994019728     2.247841236059
H      2.352627330149     2.292347957422    -0.096284816604
H      3.298501651659     4.224236663319     1.137664720671
H      3.758426458319     4.055364238675     3.590136417796
H      3.262852336155     1.921270775236     4.797105685006
H      2.347708288934    -0.028252205602     3.569105092936
C      0.355682559432    -2.245687218645     3.363643918407
H      0.513530071870    -2.075658852887     4.426256821119
H      1.166687422016    -2.720612786514     2.820915913116
C     -0.785520820721    -1.903801946933     2.722942446469
H     -0.869169408468    -2.087795329979     1.660299183462
C     -1.953014736094    -1.269188118844     3.356806195600
O     -1.991176288004    -1.120313940645     4.609070257860
O     -3.058043650943    -0.940235811143     2.547994125314
C     -4.145897566395    -0.289202459080     3.218682949631
H     -4.954727933291    -0.072927682149     2.488805599807
H     -4.564667457152    -0.941701757246     4.018435260042
H     -3.810689266202     0.674327217811     3.666565344460
Pd     1.589664659463    -0.608947578105     0.600733394478
C     -0.254943511248    -1.837071161079    -1.375347415723
O      0.653589896122    -2.205789432179    -0.465890858890
O     -0.865413714807    -2.583394359608    -2.158962319548
C     -0.509140258559    -0.282889639304    -1.367484191456
H     -1.551439501037    -0.141743815371    -1.681427250458
C      0.394088383546     0.436449745594    -2.343148418994
H      0.176540443946     1.524383089997    -2.318164710744
H      1.455563217165     0.277698685104    -2.064614582851
H      0.223872058496     0.056228090255    -3.372385128485
N     -0.196047146405     0.245350912426    -0.023310967318
C     -0.983865323375     0.918695893937     0.747297183328
O     -0.664682143465     1.238079019133     2.007703319342
C     -2.314336700197     1.377928560576     0.316319727771
H     -2.195915617845     1.999913327409    -0.586063469050
H     -2.942533868430     0.489762734935     0.133856588706
H     -2.766576482815     1.978909156088     1.127144266755
N      3.287074753042    -1.757049143308     1.046735328738
C      4.491281647765    -1.176748140899     1.362047168222
C      5.554360714401    -1.955248922794     1.770081286409
C      5.429385544850    -3.321740319808     1.860383135083
C      4.233174735543    -3.885741651499     1.511334715739
C      3.169985860740    -3.063642380378     1.080671853129
H      4.624129300210    -0.105399837821     1.285680403485
H      6.489670522963    -1.482744830612     2.023084755658
H      6.263177253602    -3.938169362891     2.186211456676
H      4.077425633208    -4.946411859584     1.537432756904
O      2.091605570477    -3.734087418369     0.744292707838
H      1.360294390296    -3.223919370928     0.185251987150

