# STO-3G

title

0 1
C     -0.297673156444     1.941791877994    -1.177432922791
C      0.297630899081     3.099560392248    -0.615362700932
C      0.219344819452     4.348055882438    -1.270887878364
C     -0.445221072274     4.460687409631    -2.504963223661
C     -1.038458520207     3.317375978876    -3.078161669987
C     -0.969595493442     2.073817631360    -2.420327126048
H     -1.637018163460     2.099639140901     0.443998549070
H      0.831160486688     3.039959854319     0.330039992684
H      0.675023216055     5.223666427262    -0.811296093546
H     -0.505734821929     5.422017908075    -3.010011135785
H     -1.557566205561     3.394569949298    -4.031721730087
H     -1.442938854732     1.207248576615    -2.877738636487
C     -0.229047081885     0.509891992297     2.809196255738
H      0.544793315865    -0.252538015029     2.827250749502
H     -1.246769127904     0.145021653618     2.704254838627
C      0.032273178864     1.834491218430     2.901134817748
H     -0.774954500745     2.553889877926     2.860916104997
C      1.383771411001     2.403352604884     3.022300072477
O      1.518334457762     3.656041093054     3.017102370806
O      2.502864638101     1.550878225235     3.001626661852
C      3.783493787020     2.193271553101     2.952209775666
H      4.580297669098     1.419068485178     2.946170973934
H      3.883122715478     2.799754015109     2.023618136155
H      3.935134590274     2.844528039283     3.842574895256
Pd    -0.175103463263     0.107214054392    -0.339133117804
C     -1.451122008376    -2.482728265618     0.380543204136
O     -0.280713292727    -1.851461474531     0.510408092175
O     -1.725056913643    -3.628553783529     0.776422008096
C     -2.524752671925    -1.599259586431    -0.358307274648
H     -3.503838339631    -1.927125210746     0.013765987181
C     -2.481652213918    -1.800988995072    -1.855586096182
H     -3.254036719812    -1.167097709090    -2.338525184697
H     -1.485374270466    -1.512522309761    -2.247987258036
H     -2.678856096558    -2.865240225623    -2.103117901668
N     -2.217203105598    -0.176912345979    -0.108781076445
C     -2.985673743921     0.700211437414     0.446093535090
O     -2.569359140653     1.935247798156     0.755537025282
C     -4.384770856522     0.415631286286     0.804726007463
H     -4.923124644832     0.113039939306    -0.109032560750
H     -4.396308332174    -0.374827172788     1.573087652249
H     -4.845290972199     1.333520234109     1.216769015153
N      1.925373018183     0.099600786066    -0.353298861424
C      2.651262072590     0.917313401519    -1.183950336071
C      4.024769608801     0.985734796610    -1.071941481303
C      4.690365569609     0.227404726672    -0.138255953430
C      3.957140586804    -0.607090296747     0.658391453772
C      2.552903317590    -0.659417772082     0.515651790844
H      2.158815799085     1.505554235339    -1.946773275391
H      4.576589264829     1.639189501531    -1.727793283579
H      5.771935950527     0.278430107195    -0.046315546009
H      4.413613914420    -1.239102213977     1.393769607160
O      1.979080073917    -1.537284859399     1.306823464468
H      0.985068866049    -1.807776034250     1.086378096879

