# STO-3G

title

0 1
C     -0.248741052978     1.730481620871    -1.084101773852
C      0.637492463082     2.788838684068    -0.774887790998
C      0.414287335936     4.086693453084    -1.278123713784
C     -0.696141932468     4.348431117461    -2.105476236874
C     -1.578999622876     3.298885083820    -2.425527980475
C     -1.356591706351     1.999729355609    -1.920190489568
H     -1.872152820785     2.618487960955     2.014250536912
H      1.498160737396     2.613239788841    -0.131231741505
H      1.107219653806     4.887617592104    -1.024597437481
H     -0.867216573552     5.349129475835    -2.496778932031
H     -2.437561710902     3.486538657187    -3.068816041384
H     -2.054162139884     1.205220603282    -2.180613180757
C      1.789476768684     0.341662154726     2.214130078819
H      2.387260057282     0.873432369584     1.476636435193
H      1.834511410687    -0.740558043053     2.161233806525
C      1.025213716263     0.964765780883     3.138052874212
H      0.433162679549     0.378322122722     3.829885988378
C      0.887885204696     2.423338772608     3.267491368739
O      0.168653691229     2.884155314418     4.195839517977
O      1.656891171120     3.274307843488     2.449617443176
C      1.328039014747     4.667566450064     2.522897415490
H      1.985120597627     5.237073378914     1.832136284172
H      0.270663671648     4.835182297913     2.214247659583
H      1.482582026295     5.058390326370     3.554115966218
Pd     0.045731544851    -0.113805885272    -0.361834672299
C     -0.998571225677    -2.597900763244     0.922096883732
O      0.162145547846    -2.072402972546     0.540259015187
O     -1.186853665785    -3.716067881534     1.435145899138
C     -2.209658805208    -1.623004595846     0.659355536246
H     -2.976969027609    -1.883310095972     1.400186771215
C     -2.787118842258    -1.811339748312    -0.725058559615
H     -3.640979659664    -1.117337716015    -0.869106990481
H     -2.015304839641    -1.592055548719    -1.490455937011
H     -3.142726353863    -2.855500031968    -0.851412217165
N     -1.722467492852    -0.230449517928     0.728572696331
C     -2.150622145236     0.695035409722     1.505387973826
O     -1.468463313926     1.865375974633     1.544785482540
C     -3.322733869615     0.510096665370     2.392165522363
H     -4.193369727633     0.249191029177     1.767317052426
H     -3.084578804736    -0.284582463924     3.118897409414
H     -3.530372444126     1.445188413253     2.942226420409
N      1.880427888387    -0.340800525684    -1.362524089176
C      2.211838646424     0.430779165502    -2.449624442617
C      3.476693908157     0.360653911722    -2.995816121175
C      4.422697871819    -0.485765315706    -2.467820817474
C      4.065891908155    -1.272458102686    -1.407738428032
C      2.758596399650    -1.189331234624    -0.881454093036
H      1.484322176079     1.092722838049    -2.900077878790
H      3.722011746456     0.980290047883    -3.842956539556
H      5.421862176800    -0.540295901598    -2.892020928649
H      4.748450254985    -1.971077192299    -0.965493629637
O      2.540110776707    -2.029454623737     0.104860018854
H      1.541199040222    -2.185172293248     0.399818959268

