# STO-3G

title

0 1
C     -0.141520785518     1.576574207163    -1.963878267784
C      0.594514352095     2.763342302242    -2.219952914327
C      0.333528514514     3.547130100867    -3.365642375410
C     -0.660523188447     3.154821501921    -4.280229898999
C     -1.400592441183     1.978988310811    -4.039628137848
C     -1.147671111165     1.201740232886    -2.892713887370
H     -1.071027187998     2.621888024610    -0.533624833942
H      1.380069289616     3.079837542497    -1.534921911409
H      0.905049625393     4.457549106206    -3.536223234302
H     -0.860835144369     3.757013483000    -5.163467982436
H     -2.174803150839     1.671368302761    -4.739995793438
H     -1.735889097308     0.302495312138    -2.720407769399
C      1.122509532934     2.514358713250     1.736122460042
H      0.083344368313     2.825454552610     1.703130872993
H      1.729896761404     2.788450896292     0.876453826342
C      1.664355506109     1.826996925569     2.766361053610
H      2.705077978791     1.536432348214     2.731027013836
C      0.925850989714     1.356924848282     3.948528766720
O      1.572546987841     0.861135345350     4.908864681757
O     -0.480190801699     1.463481873751     3.991483715307
C     -1.106866241487     0.878655032001     5.142683198553
H     -2.206340347044     1.018327977399     5.082296312988
H     -0.895818287169    -0.215015872838     5.192360419465
H     -0.747078583608     1.363935821395     6.078504892379
Pd     0.280833994135     0.354068791870    -0.410669006258
C     -0.500924375169    -1.271545144520     1.950650016510
O      0.593400512480    -0.913486070265     1.275660644519
O     -0.540143460135    -1.938547233418     3.000184773044
C     -1.821144119084    -0.754149815579     1.274316177109
H     -2.563193400793    -0.677496833227     2.078856916468
C     -2.332074508436    -1.722918854959     0.231964521689
H     -3.272607735650    -1.333100215653    -0.209424262194
H     -1.579898668487    -1.840028944661    -0.574537871313
H     -2.530972807116    -2.712278907381     0.694911199630
N     -1.543913924987     0.517216254494     0.573521566395
C     -2.166054602057     1.637228961753     0.743044241683
O     -1.808752312741     2.770450144458     0.123061842062
C     -3.319774246568     1.778029559626     1.646643293257
H     -4.104731636422     1.073164057276     1.326813552876
H     -2.973499278960     1.581160673219     2.674560868190
H     -3.703595671218     2.813674763086     1.584920446844
N      2.232162313781     0.032398130447    -1.104898973424
C      2.567970340279     0.174284757366    -2.428789132197
C      3.889195541668     0.124434086985    -2.822241049379
C      4.888495879184    -0.080208363067    -1.899773013593
C      4.533547940669    -0.259115688449    -0.591166930234
C      3.171422099030    -0.221149479325    -0.222681842753
H      1.801454469864     0.320161721359    -3.178967043151
H      4.136101528089     0.248885993777    -3.864037497125
H      5.930950923647    -0.117014162588    -2.205034742758
H      5.260584145407    -0.452517509219     0.172917154320
O      2.964088337838    -0.457703181456     1.050364061066
H      1.975498655810    -0.685054897815     1.334344263170

