# STO-3G

title

0 1
C     -0.235507105854     1.765010350017    -1.252807614724
C      0.710281201316     2.802665929864    -1.046607165118
C      0.526883431404     4.078982491628    -1.622358801647
C     -0.596770428768     4.338737278633    -2.426964942272
C     -1.542132215495     3.315949929660    -2.646750011195
C     -1.366867050740     2.046277908638    -2.062368813989
H     -0.757849644544     2.085914414128     0.696019571176
H      1.599644754601     2.627845081176    -0.442985946739
H      1.261336379788     4.860428288273    -1.434217731342
H     -0.737788239364     5.321385397865    -2.871136392374
H     -2.416116531040     3.508177306022    -3.266252397002
H     -2.115112108706     1.275531898345    -2.236736335143
C      1.190396359155     0.092389147451     2.661473129070
H      0.447390198639     0.100133953303     3.456093910057
H      1.436542044896    -0.877433566340     2.243852980865
C      1.768289399981     1.216811776255     2.183590282558
H      2.480294352124     1.146583897419     1.369649816823
C      1.492233944838     2.575390799202     2.676385755883
O      2.084322469829     3.545900269472     2.131207710944
O      0.673954738854     2.759242320951     3.807412678412
C      0.344372530232     4.119099588145     4.119382446106
H     -0.311819026799     4.142226161529     5.015138116412
H      1.262114472525     4.708782895089     4.342923630057
H     -0.205526515533     4.591444089737     3.273227742840
Pd     0.017320645640    -0.099457228505    -0.518251696850
C     -0.979295175531    -2.521429869557     0.889142545863
O      0.148269422467    -2.045582810036     0.350443263950
O     -1.116636667164    -3.609511780219     1.474554490973
C     -2.190404052409    -1.533393899505     0.714374442824
H     -2.880998740543    -1.746418366509     1.540311711624
C     -2.914401321466    -1.759951645811    -0.593263940346
H     -3.768318873557    -1.055517395706    -0.672256612306
H     -2.224772391286    -1.581808986120    -1.443283331267
H     -3.297106350093    -2.801030331654    -0.642891258575
N     -1.677800909633    -0.147991869000     0.683163716292
C     -2.015593449630     0.821631251876     1.467861358022
O     -1.430437871159     2.024026778388     1.429294327157
C     -3.065511744040     0.685131687044     2.491047357667
H     -4.007147202271     0.405521193994     1.990124681275
H     -2.741973556597    -0.073106031263     3.222988908359
H     -3.194208699025     1.655894582284     3.006166465055
N      1.853025150991    -0.326171218299    -1.497166084476
C      2.167019507337     0.376743743436    -2.633868223873
C      3.449399778808     0.342677955476    -3.141108710934
C      4.428657875278    -0.399849724029    -2.523127765300
C      4.088040730331    -1.124282535555    -1.413561291725
C      2.762794146687    -1.082239690033    -0.930395678068
H      1.411787478952     0.959502361647    -3.146050365960
H      3.683207712541     0.911265886585    -4.026494519891
H      5.441919283095    -0.423540438410    -2.915549426460
H      4.797127438537    -1.743244795390    -0.900293984485
O      2.554439320195    -1.855403575299     0.111926657365
H      1.549483662242    -2.072001519918     0.340825159380

