# STO-3G

title

0 1
C      2.485793912938     1.155602490051     1.611626341435
C      2.759589656672     2.278054244045     0.795367935783
C      3.466390843282     3.387961797461     1.307435596946
C      3.912366350238     3.392451315008     2.643123789919
C      3.646627875203     2.277020194113     3.463198349841
C      2.941777919309     1.168106672737     2.951478610700
H     -0.407406930328     2.410259418828     3.055626828127
H      2.427609526305     2.296493450966    -0.241453280774
H      3.670027888169     4.241529789199     0.662469754303
H      4.459135180456     4.246476399842     3.037434383047
H      3.985480903806     2.269532642335     4.498264394157
H      2.738548179885     0.321635155845     3.605505193938
C      0.528565283538    -2.301988467253     3.643408532789
H      0.575372719328    -3.386251441730     3.586948841168
H      1.435406734465    -1.797541204271     3.968829037602
C     -0.550308553055    -1.587869300205     3.252258455450
H     -0.506588549417    -0.510421802143     3.263718459577
C     -1.790748248366    -2.170548176158     2.714769300460
O     -1.996422877370    -3.411600549805     2.800343837730
O     -2.741290785886    -1.311547831335     2.127922241634
C     -3.874441474214    -1.958928939122     1.531042461388
H     -4.550483934481    -1.196305431233     1.090427853922
H     -3.551595902824    -2.648628846026     0.716677939366
H     -4.447590376239    -2.535217285644     2.292545337042
Pd     1.475744847268    -0.406770438436     0.870019731172
C     -0.833650601485    -1.487460119332    -0.674765356892
O      0.190215224726    -1.933447637805     0.044089673012
O     -1.692582440130    -2.162691321744    -1.272844536035
C     -0.897301039670     0.090686111937    -0.716585343689
H     -1.953313550372     0.350804666653    -0.863654680006
C     -0.088838382161     0.650594119915    -1.864538538248
H     -0.159784920458     1.757915435339    -1.864453269938
H      0.975460677908     0.359321152429    -1.754885122712
H     -0.477328563987     0.261625400707    -2.829101517924
N     -0.294887659527     0.619304800323     0.523497350120
C     -0.855344873114     1.395196645788     1.375677286654
O     -0.254920041169     1.570162943700     2.584686652279
C     -2.167243681693     2.034592664809     1.136137991704
H     -2.102402103360     2.627886386651     0.208820799157
H     -2.927214232532     1.237743414374     1.065702293350
H     -2.418615839865     2.692249776404     1.986904780581
N      3.108979954577    -1.707229075866     1.073603005817
C      4.396711138073    -1.242895819023     1.186600023509
C      5.430614700911    -2.112182960679     1.466630722878
C      5.192095971424    -3.456641689766     1.627009357043
C      3.909987991302    -3.907304989628     1.477448502440
C      2.875585216202    -2.994878063269     1.175732460709
H      4.620096930795    -0.193638663214     1.047012318546
H      6.433615462857    -1.728876149485     1.560322553483
H      6.002966848297    -4.144824905456     1.850859153791
H      3.659614637408    -4.946273039505     1.565603999894
O      1.706493888956    -3.569830032558     1.020995822162
H      0.930088361379    -3.003001413144     0.612000497381

