# STO-3G

title

0 1
C     -0.187378930560     1.845392418664    -1.514583765929
C      0.793912149812     2.843711553461    -1.743827297464
C      0.518248410888     3.968115817020    -2.551326880191
C     -0.740939133146     4.115463667834    -3.160394916462
C     -1.728542655756     3.133660454863    -2.947226173577
C     -1.456711322221     2.019619869784    -2.129679342162
H     -0.566827743481     2.311008883112     0.513632406441
H      1.785563599501     2.762772324408    -1.303524374494
H      1.290062648428     4.720614730806    -2.702076445947
H     -0.950521589937     4.979853653802    -3.786113863221
H     -2.708495741007     3.237843521378    -3.408892500127
H     -2.243251882278     1.285262543852    -1.968933233674
C      1.973863815925     0.102559862094     2.521620373379
H      2.867572925541     0.696858796463     2.700276980321
H      2.072896072390    -0.772681878083     1.882953947543
C      0.771158806154     0.379118897998     3.075452454218
H     -0.063401435268    -0.270403139032     2.856290086786
C      0.481131556409     1.509718399529     3.970039435917
O     -0.664876923679     1.588944767028     4.489844315603
O      1.487028578912     2.449357006483     4.262454866649
C      1.090682348770     3.550198498082     5.091788529439
H      1.959222072563     4.225717312098     5.246491679401
H      0.276866092947     4.135888350121     4.606301814283
H      0.746257878053     3.191579509267     6.088212907528
Pd     0.123364327231     0.090783328817    -0.521858932431
C     -0.925181444069    -2.257772380474     0.840118593154
O      0.237875991522    -1.803388331734     0.379767666855
O     -1.144658970981    -3.388092944028     1.326856375176
C     -2.129659708617    -1.230259340138     0.722233440754
H     -2.773012394550    -1.394153835817     1.596569346999
C     -2.938389658494    -1.469323712821    -0.532679802615
H     -3.773988948508    -0.741081440155    -0.583110156261
H     -2.294063754902    -1.340156860024    -1.425801258686
H     -3.354317180119    -2.498784209453    -0.526627356043
N     -1.580574596926     0.137375311694     0.627888143126
C     -1.919356281455     1.176032043815     1.315571889762
O     -1.253910254916     2.339173403921     1.237417197686
C     -3.044103914910     1.164410948883     2.262802211272
H     -3.958499370860     0.870363677158     1.722405998958
H     -2.802273311153     0.467794691010     3.083110829760
H     -3.166733758696     2.179215084315     2.686235408497
N      1.884705615449    -0.198519194843    -1.530480762320
C      1.866842522840    -0.978697598759    -2.655161711438
C      3.037304934186    -1.203279560002    -3.353218286587
C      4.225827911456    -0.652569223954    -2.920746894496
C      4.210614190219     0.114616423027    -1.783821198799
C      2.992805831915     0.309622654966    -1.106253195707
H      0.933769274025    -1.409483610324    -2.999513734744
H      3.017611497066    -1.815168323220    -4.240287481552
H      5.150761410289    -0.825639857305    -3.464607832839
H      5.097980219437     0.566410419773    -1.387431666009
O      3.080997153427     1.056638766540    -0.003950110140
H      2.234844201002     1.059356374723     0.515578017673

