# STO-3G

title

0 1
C     -0.009397404212     2.021434031882    -1.177065239487
C      0.564171362360     3.177605547171    -0.568883320608
C      0.429269658050     4.463581286118    -1.145568146288
C     -0.282654836109     4.627618377886    -2.343291756782
C     -0.859011671496     3.497562660360    -2.963122615827
C     -0.722726638354     2.219725905827    -2.390431869013
H     -0.770319091858     2.404740217899     0.772617160434
H      1.119550503668     3.098186805308     0.369353134362
H      0.881757405544     5.321288839916    -0.652332407402
H     -0.388582142462     5.612951912575    -2.790001942741
H     -1.412186699367     3.614287106594    -3.893025042238
H     -1.173996245765     1.367189922437    -2.892632808150
C      2.406295408428     0.907085269523     1.813852911055
H      2.867390602498     1.890837670226     1.880098735680
H      2.840119666430     0.224209966091     1.089231915938
C      1.355116288596     0.515779100820     2.570425278222
H      0.941887156449    -0.473233018526     2.430839428257
C      0.681753171579     1.359749718854     3.569646722754
O     -0.294981099477     0.881903824810     4.209322367865
O      1.122979676258     2.679511242332     3.781773329986
C      0.278600213253     3.491159723136     4.608704842319
H      0.717643651037     4.507731657069     4.697185437944
H     -0.734536913514     3.589180644148     4.154937221073
H      0.189503388973     3.058680838520     5.630924230706
Pd     0.123607687183     0.115191597801    -0.438248505098
C     -0.982472518618    -2.313837415106     0.724191680921
O      0.188684075995    -1.834634467629     0.312739634001
O     -1.216929188004    -3.489178870109     1.079968289447
C     -2.152488987444    -1.258227431893     0.717272340622
H     -2.792289308910    -1.503168427499     1.575272211927
C     -2.976154702125    -1.354510348332    -0.548075386620
H     -3.809255694016    -0.622771097929    -0.508361085070
H     -2.341801619622    -1.124722524739    -1.427877312901
H     -3.396696606867    -2.376749075932    -0.653225200125
N     -1.586947780281     0.111690484479     0.753117128120
C     -1.996027419012     1.076012591083     1.508617565878
O     -1.435869585855     2.294511089114     1.501462181963
C     -3.101858936001     0.924090220190     2.469784522647
H     -4.006619191835     0.609263653160     1.925206181224
H     -2.792545331317     0.188536090172     3.232611312656
H     -3.284712306477     1.894947261966     2.966537277327
N      1.776601795494    -0.379229959986    -1.603889381868
C      1.713932332196    -1.653221585806    -2.113277340886
C      2.812363746573    -2.200062700695    -2.746752065678
C      3.982249646984    -1.483536886058    -2.862584705903
C      4.015583738575    -0.213319968085    -2.351203709864
C      2.866597914087     0.309443405776    -1.726174994151
H      0.795565547828    -2.224084128211    -2.049254854220
H      2.751486918688    -3.201686594024    -3.140576973853
H      4.853159179839    -1.912333155142    -3.351390861864
H      4.891292779249     0.401790003988    -2.413198280837
O      3.021471955866     1.548463046139    -1.270592081021
H      2.172527577181     1.948164468928    -0.954869411508

