# STO-3G

title

0 1
C      2.108473120032    -2.375991675671     0.116329295589
C      2.876064168606    -2.621939431478     1.272327580071
C      4.261837203041    -2.852178205627     1.166347988439
C      4.885126182406    -2.834825604046    -0.099355867690
C      4.117283494481    -2.596115330755    -1.257391313410
C      2.729931442261    -2.370132336845    -1.148005801580
H      1.038168472317    -2.204881569422     0.200736535520
H      2.390952373143    -2.632643792980     2.245832916675
H      4.850011673617    -3.055219089414     2.058843005611
H      5.954260925019    -3.016544686188    -0.182109796302
H      4.593737060836    -2.597009851599    -2.235388334471
H      2.132784249192    -2.200313771273    -2.041980578943
C      0.823437841024     1.011137268199    -0.782858247873
H     -0.018007311655     1.045193702713    -1.463934119941
H      1.633832252359     0.336338985317    -1.042245955355
C      0.990921603222     1.917038755552     0.269196152433
H      1.918238011292     1.916909599670     0.811478917606
C      0.059574205493     3.004494452278     0.597150056556
O     -1.162734333167     2.824389398364     0.351886504126
O      0.475820874985     3.991647823957     1.503430653907
C     -0.515557514020     4.955830915515     1.885036550331
H     -0.061648333380     5.691032576803     2.584713324516
H     -0.892474768726     5.510878271362     0.996173349893
H     -1.367833572693     4.464481884633     2.406899231362
Pd    -0.051414983153     0.035303007557     1.021213005706
C      5.068836630521     0.603225894389     0.753230540219
O      3.905359419809     0.861566910839     0.696589354146
O      6.235331215106     0.371182339688     0.825231612862
C     -1.375836596204    -1.633451293454    -2.471418442350
H     -1.211216398478    -1.342630570308    -3.510212252909
C     -1.593129397711    -3.090264062717    -2.165396030521
H     -0.722995233873    -3.484144276384    -1.602613262991
H     -2.517819097573    -3.207696901851    -1.567541285620
H     -1.700708172752    -3.656899630038    -3.111640457377
N     -1.422611031615    -0.755519365296    -1.534965227602
C     -1.562271646361    -0.780389107417    -0.160092667831
O     -1.435152293580    -2.060382050654     0.467800430427
C     -2.746869304382    -0.022442639659     0.273153172708
H     -2.751372714507     0.959279885328    -0.237497128496
H     -3.638731911270    -0.591566155155    -0.046048472830
H     -2.747024311545     0.107736530818     1.370646033177
N      1.076903497871     0.062082716821     2.920557164845
C      2.209370626177     0.466542379454     3.570774355584
C      2.458910544433     0.010208360279     4.851969120617
C      1.581437438320    -0.848922173248     5.483184119377
C      0.451292018307    -1.243730335616     4.811660525236
C      0.232230807830    -0.760557133841     3.504667661635
H      2.900762939041     1.147175374079     3.089694057480
H      3.356679856435     0.330448524027     5.355875117430
H      1.783653698587    -1.206721017119     6.489296497722
H     -0.267160107116    -1.912381721724     5.239962977532
O     -0.830681443604    -1.162887782036     2.859736551239
H     -1.377825996906    -1.966715145139     1.463356251937

