# STO-3G

title

0 1
C      0.670040477297     2.995393451304     0.018601489954
C      1.722505046431     3.866193144158     0.375603379391
C      1.616432168001     5.245441670880     0.096589503644
C      0.466854070461     5.756894451182    -0.535363513625
C     -0.579261335757     4.883589361901    -0.890956681717
C     -0.480405728830     3.502545342760    -0.619219711251
H     -1.179655227476    -1.135664508912    -0.842102532532
H      2.616711455404     3.489340595911     0.870347082354
H      2.429343071193     5.912455852266     0.376409190371
H      0.385969742362     6.820402344863    -0.747337449748
H     -1.471212297612     5.269704613123    -1.380313740794
H     -1.291709594457     2.838210401974    -0.909576768910
C     -0.726417725026     1.048504242949     1.927941182514
H     -1.405032838993     1.875063465981     1.743571271881
H     -1.128293631425     0.064668686661     1.711875418063
C      0.482681121034     1.204856724927     2.608161830828
H      1.052229772723     0.327104341882     2.884147861025
C      0.919887428632     2.467535464809     3.227289301074
O      2.107591071231     2.561028742843     3.632782577078
O      0.055790923618     3.576614587658     3.228378517151
C      0.592155123691     4.792510152820     3.767289262758
H     -0.178896521108     5.590589192463     3.709149628869
H      0.879136654448     4.659945197179     4.835010150729
H      1.478643401477     5.127133828741     3.182931393053
Pd     0.858380399545     1.040314182007     0.339942867856
C      0.669647985522    -2.091696188337     1.607744218431
O      0.956155688642    -1.200713230200     0.606896361989
O      1.134565344620    -1.924777929092     2.746390902956
C     -0.339192594869    -3.249222375247     1.310594422702
H     -0.226578924297    -3.901397679221     2.182881374796
C     -0.026178682413    -4.068562514797     0.071605026549
H     -0.605652675931    -5.014404232206     0.107215664890
H     -0.332802744223    -3.522676658345    -0.842159631698
H      1.055711713358    -4.308885813876     0.024465369548
N     -1.748706831230    -2.852482759714     1.272335681722
C     -2.397256143673    -1.970975057380     0.611379241501
O     -2.017938968814    -1.023278956231    -0.310594379127
C     -3.835778615849    -1.887534092314     0.894153530480
H     -4.112877574483    -2.649476192064     1.646222083806
H     -4.046563541997    -0.876445714735     1.277228894854
H     -4.378485234421    -2.068049544023    -0.049285746762
N      1.412272112409     0.777200600029    -1.698368792530
C      2.113989304134     1.710403785027    -2.418161359687
C      2.267664175543     1.565456257129    -3.781619378476
C      1.721732381270     0.486529384074    -4.438864866572
C      1.040506986468    -0.444485565384    -3.703075036325
C      0.905628829054    -0.272016563899    -2.307427897130
H      2.561043592988     2.561357827823    -1.921103048920
H      2.816552458831     2.310191283377    -4.334365546627
H      1.835567944117     0.372619037412    -5.513647437719
H      0.596078659209    -1.311068320126    -4.149770990227
O      0.259533710469    -1.223864901211    -1.682500851488
H      0.657343513307    -1.370804416174    -0.430499612911

