# STO-3G

title

0 1
C      1.416124762214     2.837754516549    -1.493603883024
C      2.613029805552     3.569829715383    -1.643589403505
C      2.717462690116     4.545474467072    -2.659046853652
C      1.633215080190     4.794207320213    -3.521107702071
C      0.439805234675     4.060962494199    -3.367867419219
C      0.328869214262     3.081157525384    -2.359978747421
H     -1.139558181044    -0.228925281989     0.199887969425
H      3.466854488708     3.387710751085    -0.994138631668
H      3.642962178304     5.107049250938    -2.770052696008
H      1.714310698260     5.549260851900    -4.299558595438
H     -0.405519099540     4.248273631981    -4.027204089543
H     -0.598572082457     2.521992072245    -2.253970899416
C      1.698487907820     2.766709852803     1.614836539745
H      1.848486089457     2.104886074852     2.463703056897
H      2.580170186610     3.254348116655     1.211555662928
C      0.427287426446     3.175509575622     1.211097085801
H      0.330881400631     3.933213516930     0.449116908498
C     -0.820458314327     2.910639850363     1.952974586845
O     -1.858472543000     3.537159189204     1.610445689979
O     -0.753601387694     2.234401477348     3.182724685224
C     -1.922118568466     2.305158418855     4.010148827004
H     -1.766646540851     1.679175924666     4.915234115488
H     -2.110354444430     3.353313582156     4.333073074225
H     -2.816155516660     1.921987292957     3.472984879896
Pd     1.264139752750     1.415892634608    -0.103020865077
C      0.792144541318    -0.418814309798     2.712347568233
O      1.074626588720    -0.287383641507     1.373412973727
O      1.464729834482     0.198030743017     3.552516545352
C     -0.369506247090    -1.383374633603     3.136546554439
H     -0.333835872214    -1.329526989613     4.231397655126
C     -0.093143559829    -2.822061704044     2.742915462791
H     -0.794042033076    -3.491653155326     3.284236294830
H     -0.265778692411    -2.953306352178     1.655192774618
H      0.947597689200    -3.108172621673     2.999951889356
N     -1.756110062683    -1.119430914094     2.766629503349
C     -2.297068409046    -0.446544249900     1.828943360097
O     -1.722460969088     0.305800239956     0.814792907348
C     -3.765448851813    -0.423121382152     1.839220424531
H     -4.112793069186    -1.457056488494     1.677733345514
H     -4.093968640624    -0.063049891631     2.827185689631
H     -4.130501743933     0.242235521124     1.036458396491
N      1.398991696178    -0.032145041278    -1.647394489926
C      2.169033563347     0.131960615848    -2.770544418358
C      2.125086859372    -0.800871005188    -3.786223414712
C      1.309513740470    -1.905562358802    -3.690705559663
C      0.559483415968    -2.062673964460    -2.557118875329
C      0.629375202199    -1.093600806370    -1.531317671979
H      2.825492237849     0.987736707029    -2.863881504568
H      2.731511428839    -0.655254111971    -4.665134150262
H      1.267642348297    -2.638382913898    -4.492170643846
H     -0.092281959454    -2.901110907734    -2.415024323384
O     -0.100099616642    -1.330260121992    -0.473888001537
H      0.542550299245    -0.887509005864     0.672373029231

