# STO-3G

title

0 1
C      1.053832844477     2.789475574081     0.026651087678
C      2.076997259764     3.681414785649     0.406945635297
C      1.920021875886     5.065156853917     0.172647894986
C      0.749816002373     5.556438256840    -0.435893110638
C     -0.269577482042     4.659428155751    -0.812263857740
C     -0.121371541882     3.275750510961    -0.585491036856
H     -0.990774931578    -0.930138893050    -0.743477329351
H      2.987432045263     3.321020942232     0.881095848120
H      2.710546109567     5.751078108410     0.470553672159
H      0.632326664678     6.622928630422    -0.613291671326
H     -1.179625907737     5.029615109098    -1.280344021458
H     -0.916402454180     2.591297186809    -0.875467012680
C      1.622961876644     0.899377796656     2.485223418683
H      2.216103317650     1.781429938302     2.701916365246
H      2.112417973492    -0.067008762843     2.572502587711
C      0.233285771864     0.966119461246     2.372479808990
H     -0.346023647833     0.055102620582     2.311274611893
C     -0.565368347874     2.180116395135     2.619179446540
O     -1.816827022046     2.120185814466     2.498543175390
O      0.080090387039     3.370678659520     2.997230799646
C     -0.751351905933     4.536533494335     3.070316637549
H     -0.131702266190     5.411920606631     3.359847323790
H     -1.211980344884     4.753608344854     2.079808463232
H     -1.552221616177     4.406008781184     3.832945686719
Pd     1.223708831942     0.823837168167     0.287141942496
C      0.864242553526    -2.277895948893     1.545022864650
O      1.209154783613    -1.445116516008     0.507831627604
O      1.564362147067    -2.317621473015     2.568265398398
C     -0.492337945261    -3.049472064214     1.462138284654
H     -0.459770871229    -3.701384359590     2.340809843937
C     -0.657533731762    -3.929716110539     0.235714286176
H     -1.509804268934    -4.621261903824     0.399856588911
H     -0.890362253740    -3.319089667579    -0.657786251240
H      0.261217948307    -4.524677964577     0.056240702521
N     -1.675464010991    -2.198747326045     1.620224786278
C     -2.144593059965    -1.209657606118     0.954706430069
O     -1.705319653912    -0.542913921081    -0.160287799762
C     -3.386516262511    -0.640857611467     1.491509378162
H     -3.189970069457    -0.316371099102     2.527676759801
H     -3.696128915180     0.224872530303     0.880053593799
H     -4.159451410837    -1.427866018825     1.474887336026
N      1.501119095038     0.599396746543    -1.802338014310
C      2.176759492086     1.516988176958    -2.565661952511
C      2.245816933739     1.366133776371    -3.935360849661
C      1.635836210450     0.299397630949    -4.555598138185
C      0.977034644794    -0.613581523237    -3.777964467822
C      0.928163372245    -0.434866707704    -2.377319400448
H      2.670938067027     2.359275704657    -2.098097395856
H      2.775615562312     2.098046737514    -4.522636109388
H      1.680662568383     0.182186355893    -5.635097373239
H      0.480663233112    -1.466522406525    -4.194977675781
O      0.288033446449    -1.361872180765    -1.710395619309
H      0.788269242496    -1.570206795604    -0.485380809951

