# STO-3G

title

0 1
C      1.754969017598     2.896096173627    -1.603425608670
C      3.047386982726     2.928742116258    -2.170784730016
C      3.310484906281     3.767946417806    -3.274701535975
C      2.292248857812     4.579798979565    -3.811309911589
C      1.005937655911     4.550607095143    -3.238413585922
C      0.734484531774     3.709776377213    -2.138243619392
H     -2.398544295901    -0.443582711545     1.105714101929
H      3.848107880507     2.313673343469    -1.764806030533
H      4.309011886013     3.789441968773    -3.706740889275
H      2.498173976740     5.228879369050    -4.659076605589
H      0.211981060713     5.176667241352    -3.641022035780
H     -0.265011338085     3.694410105181    -1.705304242895
C      2.339166034954     3.388630249651     1.064919435588
H      2.052778576037     4.243740977151     0.465406927963
H      3.391124507897     3.123275216853     1.077130534748
C      1.467729484886     2.775658273434     1.944867656408
H      1.838912408085     2.013901481092     2.610525000149
C      0.042667367389     3.112106070008     2.099699680061
O     -0.518778386620     3.784124133641     1.194383422513
O     -0.704842029953     2.366627210277     3.025686656231
C     -2.127934009490     2.376084846361     2.839698345039
H     -2.606124972489     1.723805521824     3.602607688985
H     -2.537996589812     3.405272894107     2.946537400863
H     -2.399683423438     1.969112496445     1.838150845323
Pd     1.336210519640     1.617165208531    -0.118098387951
C      1.081652600890    -0.380342721384     2.567718993967
O      0.645404242906     0.147188262367     1.380971761205
O      2.238905190308    -0.154370084191     2.958409039574
C     -0.006483014879    -1.157262671499     3.352968285436
H     -0.773292686591    -0.411210516012     3.624761215495
C      0.541373310019    -1.797960343157     4.605093097015
H     -0.281595098308    -2.305325313803     5.149347549861
H      1.302441979102    -2.555485235628     4.325241108597
H      0.998657206855    -1.032620201986     5.265504372608
N     -0.557597652682    -2.246605279568     2.532124303148
C     -1.666629993535    -2.077283947984     1.918309557559
O     -2.463106268222    -0.941063780428     1.971485994623
C     -2.159146053940    -3.206148609725     1.119132324123
H     -1.408784076071    -3.411934086425     0.337675560798
H     -2.260355113735    -4.071132715478     1.795487660121
H     -3.132031743538    -2.937296957477     0.672380114717
N      0.394528820390     0.405846446087    -1.562609797439
C      0.860888668345     0.214237174226    -2.836965372938
C      0.058720791698    -0.386954817358    -3.785236103643
C     -1.214652762698    -0.802597519578    -3.465891220664
C     -1.655143954514    -0.620315650795    -2.182595205561
C     -0.807675204513    -0.007282455837    -1.233496267467
H      1.861899281229     0.529468523266    -3.103912776675
H      0.434254196993    -0.524460828141    -4.785895185404
H     -1.850971302191    -1.271576368018    -4.211679190031
H     -2.630228929524    -0.928950971735    -1.863022891259
O     -1.287958810348     0.097696085541    -0.022673984178
H     -0.346352961121     0.050722004048     0.892794955722

