# STO-3G

title

0 1
C      2.482064773780    -0.430208002743     0.800571217061
C      3.425281805671     0.259124679101    -0.016264881405
C      4.140975941861    -0.455933000456    -1.020802790953
C      3.906610015893    -1.824053449605    -1.204903704806
C      2.969337233169    -2.513028407979    -0.385597704074
C      2.267566675463    -1.828642740404     0.612479702392
H      2.009358291376     0.067473082333     1.637826504276
H      3.679754057402     1.294920227832     0.189823302089
H      4.862841147861     0.069056251103    -1.639670760460
H      4.447740732522    -2.366511536766    -1.975937371491
H      2.799642071761    -3.575703788021    -0.536685532682
H      1.544597658964    -2.331296623138     1.247716054943
C      0.549342005363     2.090153562240     0.198200171470
H      0.743820204348     2.921528451831    -0.481634172309
H      1.236075154839     2.082300928919     1.048458195271
C     -0.900842681219     1.979031785270     0.709696458123
H     -0.851492629653     2.022666237544     1.796355944683
C     -1.942860237318     2.938826204670     0.245449732243
O     -1.865730405669     3.453845861412    -0.903927864908
O     -2.944962337933     3.342197809917     1.148211083701
C     -3.906425446538     4.280323205860     0.646314003524
H     -4.641965732992     4.513716900435     1.445902245964
H     -3.410575448507     5.229454264769     0.341172225414
H     -4.459112334465     3.853099588067    -0.220414008795
Pd     1.224102312631     0.526547603634    -0.931850870270
C     -1.763259139772    -0.241745560068    -0.492896108138
O     -2.193082200364    -1.365731986247    -0.210572143910
O     -1.411899281964     0.552992189544     0.605051635468
C     -1.620109366634     0.288238142574    -1.948486767029
H     -2.508398351666     0.920806668371    -2.130407391045
C     -1.644282908236    -0.868432390069    -2.931681129338
H     -1.543101249692    -0.502740393977    -3.970855674524
H     -0.801376703754    -1.556390283566    -2.715105754511
H     -2.599752096455    -1.427768122689    -2.844493351423
N     -0.356093999486     1.006690842683    -2.116550880491
C     -0.100771640900     2.072267055149    -2.917084060010
O      1.014372519239     2.675833431535    -2.909666685849
C     -1.130158871975     2.526433795046    -3.887239149254
H     -1.362017170218     1.703401850822    -4.577887308371
H     -2.019105894248     2.859879446028    -3.329462939787
H     -0.722485784262     3.382606895571    -4.454945470492
N      0.202463643166     1.219010819474     3.543313344066
C      0.721672984935     1.926827875584     4.593469505772
C      1.357252371110     1.264218436509     5.628566985814
C      1.458744237817    -0.112022916746     5.620495905177
C      0.919438126547    -0.796570876284     4.562618354615
C      0.279517154951    -0.069034927528     3.536024570478
H      0.645240878944     3.007778237075     4.603442108011
H      1.765825095045     1.830469429973     6.449015459265
H      1.950601434780    -0.639689048690     6.433205625235
H      0.948787417275    -1.865199842149     4.492388655789
O     -0.210452048544    -0.838425086058     2.552152889700
H     -0.725980677489    -0.346217592093     1.845136495236

