# STO-3G

title

0 1
C      2.026707203881    -0.252458897012     3.399737503379
C      2.601964608139     1.033511918752     3.481566098349
C      3.427290026438     1.365248382019     4.576922426047
C      3.676366706977     0.419324253686     5.589876611467
C      3.100444399587    -0.862951102124     5.503767425860
C      2.273042881356    -1.201482032847     4.412012791881
H     -1.719163309039    -1.110578867539     0.154350272047
H      2.430346448540     1.770437369474     2.698663747898
H      3.869269135964     2.357322759997     4.633173162726
H      4.308293213024     0.677966756084     6.435743304755
H      3.289650218966    -1.600158856613     6.280872069335
H      1.844141023395    -2.199610608418     4.354456649363
C     -0.922615025631    -0.939797441212     2.911085453359
H     -0.711826832746    -1.153912728106     3.953588464857
H     -1.401615660639    -1.722122121010     2.330828980790
C     -0.874347592406     0.370554181863     2.409154850567
H     -1.248395609240     0.571619116339     1.415901860631
C     -0.651392511243     1.569940551035     3.235493026330
O     -0.540941723757     1.460770984426     4.485211870577
O     -0.468915081608     2.804652014280     2.590566196261
C     -0.207290311696     3.924847518161     3.447985494508
H     -0.082472022803     4.840623007289     2.830805220745
H     -1.055924949251     4.092209462448     4.149787134471
H      0.728081540079     3.766901665394     4.032145637655
Pd     0.973650725477    -0.774711899037     1.791571226997
C      0.123106196349    -2.238093444456    -0.853305161810
O     -0.220495802568    -1.352355422677     0.060003260857
O      1.325191222316    -2.658908795959    -0.968202195703
C     -0.960705491285    -2.794579585654    -1.814651044373
H     -0.531075468050    -3.726679907313    -2.196864119862
C     -1.164567955613    -1.863715618775    -2.995943935366
H     -1.853323719800    -2.337067866341    -3.726605993413
H     -1.618053557926    -0.915029243452    -2.641597113474
H     -0.197005357776    -1.651382583023    -3.496733131875
N     -2.289638577112    -3.112988233518    -1.284692198679
C     -3.009070000174    -2.449241171904    -0.457050359409
O     -2.715838611882    -1.299323533057     0.234131720743
C     -4.355431540371    -2.974268902562    -0.210847488094
H     -4.886897127241    -2.991872135744    -1.177077406051
H     -4.245858716029    -3.997847873022     0.183518842757
H     -4.881807212045    -2.327123382971     0.513105021687
N      3.688798397161    -0.090335790211    -0.875879748527
C      4.706392956625     0.753361768871    -1.233726909801
C      5.697367290642     1.068468713036    -0.318651572024
C      5.674827394852     0.525417248607     0.950440734338
C      4.650257248323    -0.326898324660     1.272086344659
C      3.668939168994    -0.600652695807     0.295454910258
H      4.726488585605     1.181112335676    -2.229276736027
H      6.491524758439     1.737260937004    -0.606458250967
H      6.450473520047     0.762784437776     1.673630975940
H      4.577061435472    -0.795068760661     2.233845743829
O      2.687899667347    -1.467773997349     0.688973259139
H      2.191827484523    -2.007858152310    -0.116327757308

