# STO-3G

title

0 1
C      1.057597728279     2.880642975626     0.321145736924
C      2.447326004099     2.931355893327     0.080554991790
C      3.046597804819     4.141230693364    -0.325638225654
C      2.264096265553     5.300724671839    -0.493842553147
C      0.877729298341     5.246053256187    -0.257020015455
C      0.271574368050     4.039567473597     0.155986547734
H      0.417351426946    -1.655204895533     0.588703390425
H      3.062160366419     2.040447100581     0.193909315004
H      4.117992989741     4.171688258286    -0.511872793431
H      2.728368428861     6.232489130694    -0.807464750766
H      0.264017471290     6.134626732095    -0.388150842020
H     -0.802443505134     4.015058911357     0.327617131373
C     -0.826022710165     1.865950282131     2.572398004110
H     -1.094878099014     2.906458323233     2.420387623802
H     -1.626266276178     1.126616286547     2.549962578643
C      0.454426650957     1.507326751972     3.026632497760
H      0.645338637646     0.475472263998     3.291137346637
C      1.498857632656     2.470222308290     3.417917742147
O      2.640054606773     2.034735039337     3.719669922410
O      1.229809881238     3.848702048771     3.357889443207
C      2.355268526998     4.716242242379     3.549658712811
H      2.021667076664     5.773070157237     3.470761480096
H      2.806793637615     4.565193511965     4.556324525466
H      3.125698653616     4.539954943940     2.764846467245
Pd     0.284370181465     1.113896721523     0.823204826535
C     -1.601356730486    -1.392292923949     1.608447325096
O     -0.360026340015    -0.885010277388     1.429960614108
O     -2.543416862837    -0.738846132054     2.110772845975
C     -1.807983545845    -2.883047012302     1.168266255998
H     -2.894918970787    -3.014595762196     1.164723198470
C     -1.226240316529    -3.843817525836     2.188151365399
H     -1.494585075815    -4.884987049294     1.912108147147
H     -0.121037719728    -3.749191471772     2.191643112678
H     -1.624070125913    -3.623340237124     3.200262324290
N     -1.321100217546    -3.311528072459    -0.148483281468
C     -0.249829999736    -2.979442322768    -0.753621519004
O      0.739135008512    -2.096920630814    -0.331753910112
C     -0.013915613188    -3.582357138479    -2.066416426533
H     -0.845670315604    -3.271540242952    -2.721809664733
H      0.949603462189    -3.225730063537    -2.466881251590
H     -0.007940434238    -4.678929959422    -1.942389607459
N     -1.104301296340    -0.274367535412    -2.508254484397
C     -2.021690747237     0.059574724165    -3.467616897611
C     -2.004264285157     1.327524460040    -4.024994233507
C     -1.061125569510     2.253945181815    -3.625567167797
C     -0.157801134393     1.885783632142    -2.660802415567
C     -0.237636986284     0.581459691876    -2.129773604690
H     -2.758750406361    -0.668576311571    -3.785723802907
H     -2.728268685102     1.583878415344    -4.780814832154
H     -1.030922343714     3.245931937886    -4.068454664227
H      0.622177181695     2.542437820139    -2.331763546869
O      0.698280087304     0.281368010744    -1.168925659212
H      0.774370254638    -0.747617111140    -1.006539027869

