# STO-3G

title

0 1
C      0.796135285917     2.942638274655    -1.403266550681
C      2.022651974569     3.499428111816    -1.821127156323
C      2.049270484829     4.391502598958    -2.915709623969
C      0.856961525429     4.737201796183    -3.578600544658
C     -0.366451886862     4.183486462877    -3.150790707449
C     -0.401042173837     3.286948641395    -2.063275390000
H     -0.082829876014    -0.876199587428     0.905357777878
H      2.955330807658     3.234455622942    -1.326584300670
H      2.998542857400     4.811079023016    -3.241575058071
H      0.878991159736     5.428701373207    -4.417276181903
H     -1.292075196925     4.442662563747    -3.660228517169
H     -1.347685622668     2.850278781315    -1.752930646983
C      1.590857175308     2.909608779829     1.573557510705
H      1.905616110417     2.249939525394     2.378659084835
H      2.367413719982     3.447106835689     1.038110753025
C      0.246483896694     3.281576311353     1.388412091386
H      0.001700766997     4.046297180142     0.667831391059
C     -0.870106035248     2.923380755118     2.282256787963
O     -2.043758663082     3.158301825770     1.892139390686
O     -0.609691649548     2.406490748762     3.560345591273
C     -1.757535265212     2.164530464250     4.386566048183
H     -1.427279720447     1.738446181191     5.357941121177
H     -2.308002642045     3.110617443772     4.587907477383
H     -2.445433142160     1.430417595235     3.909133638079
Pd     0.789981759602     1.561927853277     0.036262397639
C      0.905564431041    -0.170410497646     2.799637989250
O      0.885596497180    -0.089657244403     1.449515251305
O      1.778988089637     0.369812812608     3.510783156135
C     -0.279486395948    -0.980537402198     3.437312625147
H     -0.334966418910    -0.617225775808     4.468085201600
C      0.025024309396    -2.467172641615     3.487019601682
H     -0.789587902580    -2.994975475500     4.024956500476
H      0.091108888643    -2.867886041865     2.454383870959
H      0.984495272441    -2.646201184916     4.014939148988
N     -1.622376808293    -0.816675517709     2.845975506839
C     -1.927598725441    -0.904724346434     1.605412178166
O     -1.070715979532    -1.137418000426     0.550655182240
C     -3.342701686290    -0.764602768853     1.255883896927
H     -3.899369214480    -1.543317838855     1.804328458064
H     -3.666347943556     0.238971824785     1.581255391723
H     -3.471359432460    -0.886299929524     0.166152393114
N      1.086668790173    -1.845613567535    -1.879976611534
C      1.983286632991    -2.534826102673    -2.650926461461
C      2.616379652855    -1.899308539197    -3.707199320206
C      2.341523432895    -0.576275258637    -3.992158198196
C      1.437231067652     0.084410886798    -3.199563004625
C      0.832148116226    -0.624794417014    -2.139477564003
H      2.197818676538    -3.573824692543    -2.429625101970
H      3.320624705887    -2.448168319582    -4.310076414015
H      2.824091903976    -0.073604853162    -4.826031112119
H      1.153690945753     1.100338930856    -3.384619465899
O     -0.061585714993     0.104393505298    -1.389884037187
H     -0.661068409519    -0.477150265267    -0.787817302394

