# STO-3G

title

0 1
C      0.797159123807     3.058703360193    -1.510348931860
C      2.049002297818     3.009729138165    -2.160292259961
C      2.271470762685     3.780315772585    -3.322136369346
C      1.252721954001     4.608001968394    -3.830660055278
C      0.004707681582     4.658544344610    -3.178647179775
C     -0.225289502674     3.887375297934    -2.020461310082
H     -1.410910272578     0.245431942872     1.434613465503
H      2.841585259704     2.360920437945    -1.791664756282
H      3.236240708784     3.729615834018    -3.822322725554
H      1.427127108735     5.204728342638    -4.722664692834
H     -0.789840627253     5.292150096933    -3.567209632690
H     -1.199554888410     3.926251103728    -1.536180047112
C      2.027660562680     2.770556302872     1.262635370008
H      2.240581461663     1.978443145295     1.976488904112
H      2.790498411090     2.992766212697     0.523664389826
C      0.924511693130     3.631423244871     1.397354048470
H      0.824471168235     4.474330555742     0.729187151303
C      0.011470263184     3.653114404180     2.556139263525
O     -0.984631536963     4.421542211880     2.515175163394
O      0.309384686872     2.900360654361     3.705489342132
C     -0.677941512942     2.926648777089     4.745025144219
H     -0.335484187429     2.294648285756     5.592375254346
H     -0.828269309445     3.963267191254     5.123271462721
H     -1.647717867431     2.520546247582     4.377063880435
Pd     0.395783044951     1.909232569912     0.072843239489
C      0.552476905442    -0.120642307966     2.546432869969
O     -0.163036367898     0.749815923624     1.788536169571
O      1.793610529558    -0.063650645861     2.674133299234
C     -0.373878401174    -1.185648807310     3.227505630174
H     -1.118668580980    -0.605277465990     3.801051059909
C      0.382315757442    -2.078202445898     4.180374537111
H     -0.327554784929    -2.758733871483     4.694361804860
H      1.106916311540    -2.689613318959     3.604181340061
H      0.922600080872    -1.471587698085     4.935969421810
N     -1.065699618239    -2.086547755784     2.282754952985
C     -1.810580116714    -1.702440783817     1.317101391159
O     -2.081175284828    -0.401085894128     0.913600926473
C     -2.451739481607    -2.746867590483     0.517727994948
H     -1.646497130290    -3.346245425054     0.059083052692
H     -3.053310109775    -3.368113854884     1.201536951157
H     -3.084262707134    -2.286829480532    -0.261032467322
N      0.000905794070    -1.597598414466    -1.566235073444
C      0.683206956807    -2.455914359375    -2.385742573173
C      1.203274598964    -1.996360550670    -3.584491380567
C      1.029245566837    -0.679629778247    -3.962743087742
C      0.340635085557     0.152548190340    -3.117107300307
C     -0.153648073092    -0.378752864389    -1.907625508708
H      0.815514844113    -3.490856446947    -2.092402477964
H      1.738583917321    -2.677256313234    -4.225530848121
H      1.421568429812    -0.313803794970    -4.907900441177
H      0.140184654576     1.175647721697    -3.364102136126
O     -0.832784270767     0.512883212664    -1.110879163812
H     -1.441515914209     0.035099050270    -0.421107659923

