# STO-3G

title

0 1
C      2.828628331446     1.045302882903    -0.590763585923
C      3.961707689853     0.825960125443    -1.552019373546
C      4.077839590342    -0.369729984864    -2.198112433242
C      3.192311724178    -1.496466167509    -1.898391328309
C      2.357938951508    -1.439636782428    -0.818321337542
C      2.278718300385    -0.218752725038     0.044537083392
H      3.021291980096     1.812411988785     0.159606906859
H      4.614995365664     1.663985176000    -1.778618714216
H      4.857128685310    -0.507271948142    -2.945808981507
H      3.266943712466    -2.399673386350    -2.499324495672
H      1.786171223053    -2.314210093941    -0.513561754003
H      2.842405044627    -0.428358732191     0.961997113597
C      0.457339249492     3.241009843912     1.170170832815
H      0.718454740999     3.432967789162     0.133155411604
H      1.290906797902     3.073942022761     1.846840767994
C     -0.817970000794     3.180251862467     1.615451743691
H     -1.022347577660     2.943636151062     2.651613885933
C     -2.016633460192     3.348203490787     0.776865444576
O     -1.904056991234     3.486880698630    -0.473768959142
O     -3.275265614000     3.357362368227     1.402470929290
C     -4.411313800368     3.413955737819     0.528713110579
H     -5.341981324830     3.406232462123     1.135538618316
H     -4.398044543700     4.345584566028    -0.080547168220
H     -4.436119097988     2.528012013701    -0.145452784112
Pd     0.320283766792     0.145273403877     0.646367370462
C     -2.450868743934     0.113089509111    -0.402223491428
O     -1.819290867698     0.266000606506     0.770390511035
O     -3.678998017907    -0.028181508983    -0.551269637366
C     -1.493109004136     0.132819114848    -1.646036629766
H     -1.996057971929     0.763673525988    -2.392198883486
C     -1.321455674260    -1.253301859243    -2.227493698676
H     -0.679127842694    -1.200848095477    -3.130883295495
H     -0.830601205589    -1.912216603429    -1.483189544355
H     -2.307937986477    -1.678961444269    -2.507444185423
N     -0.147649549736     0.601382872462    -1.268751953961
C      0.586138273729     1.467688111533    -1.891333548204
O      1.803571479902     1.853839150588    -1.505792027736
C      0.100863226822     2.160934045938    -3.100617899087
H     -0.134121789252     1.404981458642    -3.866599148104
H     -0.781682797718     2.760361555391    -2.817849886084
H      0.893893309167     2.834173391898    -3.475063612030
N      0.566844250358    -0.003382745326     2.748510140402
C      1.751067148794     0.306015133294     3.369179272770
C      1.898652399405     0.126759899367     4.728394786445
C      0.858392650376    -0.353260092384     5.488925144961
C     -0.330548713221    -0.611008897984     4.865449751535
C     -0.454154702865    -0.398055813238     3.475012216597
H      2.575166383521     0.719204777482     2.804264351150
H      2.838500163006     0.369125316372     5.197801107569
H      0.969850182060    -0.498397584822     6.560366880073
H     -1.193491177861    -0.947807778390     5.405772741148
O     -1.665336774404    -0.602908836792     3.021311976166
H     -1.891219022147    -0.263620625823     2.041082951497

