# STO-3G

title

0 1
C      0.769645222508     3.246771543006    -1.360579026851
C      2.123896553372     3.636069134114    -1.296863761997
C      2.463944897738     4.998038812112    -1.430208696519
C      1.462151687742     5.965040610993    -1.648335824768
C      0.112684436423     5.570786505454    -1.730769732976
C     -0.236050275540     4.209653968451    -1.600497877798
H     -2.440982657190    -0.536249635496     1.552234576091
H      2.902742863356     2.895944189546    -1.129953148028
H      3.507238673565     5.298586007395    -1.362336595735
H      1.731008936624     7.013159792668    -1.754961977920
H     -0.665270799505     6.311805847170    -1.900491706847
H     -1.282694988289     3.913639349175    -1.673014110705
C      1.318982994319    -0.333793424487     2.997998078050
H      0.761747061845    -0.468444381712     3.920294885519
H      2.081641336037    -1.076902912924     2.780360620829
C      1.059418580654     0.643043738546     2.102923627656
H      1.615184852575     0.682240906885     1.172353849918
C      0.002278315735     1.653649758666     2.243597243705
O     -0.323406717570     2.315437493606     1.219629706266
O     -0.622884070392     1.869101628088     3.485506202225
C     -1.621816245334     2.898201561628     3.511322936928
H     -2.041095490795     2.978561799641     4.537293144198
H     -1.181105664385     3.883968048295     3.238466282141
H     -2.454781546829     2.657775789923     2.812320810972
Pd     0.135932460408     1.415145585381    -0.962481160223
C     -0.389175466786    -1.468129678896     0.289350424706
O      0.815008481767    -1.928664154966     0.126483583311
O     -0.843411308612    -0.381731773090    -0.220361087070
C     -1.300773724708    -2.272369980804     1.224092758028
H     -0.679944736635    -2.892777127938     1.873839291145
C     -2.277924679276    -3.148347344764     0.469721105349
H     -2.885032827907    -3.728070680352     1.195493770494
H     -2.956749519009    -2.509495678120    -0.131624181766
H     -1.732444600302    -3.850906602946    -0.193309274189
N     -2.060309467277    -1.334707186866     2.047719917788
C     -2.032739292833    -1.418699890886     3.406752561917
O     -1.370231461831    -2.265035426826     4.051207201504
C     -2.862876784710    -0.447054641181     4.150704757736
H     -3.576393338170    -1.024379364988     4.761171355116
H     -2.184301299954     0.131455049185     4.798714002581
H     -3.402087390436     0.219661391716     3.456828736106
N      1.357774431890     0.751684139382    -2.462038493735
C      1.258565804244     1.306943242509    -3.709404927200
C      2.193888800084     1.004427186306    -4.674788936666
C      3.232783388911     0.145114962594    -4.398959045721
C      3.308096201662    -0.407705271107    -3.148334477564
C      2.333465454629    -0.091008902464    -2.172457832271
H      0.446723678355     1.988361595930    -3.936343242830
H      2.111169033685     1.452582505627    -5.651345654717
H      3.974432680567    -0.091943110647    -5.157170060688
H      4.090299844895    -1.087794247550    -2.876029618678
O      2.487850901825    -0.671362838472    -1.029218283934
H      1.589907580787    -1.287714156516    -0.414757487305

