# STO-3G

title

0 1
C      0.249789676940     2.972937336394    -1.693125516061
C      1.483579863241     3.530988307676    -1.303088203911
C      1.636973077002     4.933000140363    -1.296157596475
C      0.574572978366     5.769136691729    -1.693546884886
C     -0.650308359329     5.204562029202    -2.098751649789
C     -0.812660589341     3.802987047537    -2.111987348023
H     -0.181328852472    -1.207824188652     2.275696542561
H      2.306644540708     2.892850262339    -0.992524091276
H      2.582638327802     5.366354512495    -0.977905903538
H      0.700964505932     6.849026665547    -1.689997095020
H     -1.473059801904     5.844147706199    -2.410028401905
H     -1.761352674576     3.374994424848    -2.437944861158
C      1.837583697528     0.475139470501     2.764406583526
H      1.538865101415     0.620074885042     3.799233181322
H      2.780740005587    -0.035686735705     2.589250843030
C      1.095801534840     0.887280776360     1.714031161836
H      1.444532678076     0.696786877070     0.708412734411
C     -0.217707612638     1.537868865045     1.809725264942
O     -0.878657306404     1.704664028604     0.744646063410
O     -0.689579420249     2.002862922284     3.051548490849
C     -1.998920004786     2.586555439080     3.048028939840
H     -2.251732268521     2.925547899779     4.075642056794
H     -2.038346094685     3.469887384677     2.370958677926
H     -2.762369008447     1.839692340967     2.735972261284
Pd    -0.229766057538     1.059038096260    -1.536823865491
C     -0.851109286313    -1.461138125988     0.001257711111
O      0.398635033062    -1.737564328027     0.267349687556
O     -1.230353881724    -0.819145070122    -1.043381218356
C     -1.824705624048    -1.871182863908     1.125264799338
H     -2.016235584102    -2.953605746961     1.070400366600
C     -3.147664273953    -1.134840722945     1.046423860024
H     -3.827638265594    -1.479606646510     1.851486804740
H     -2.971817499102    -0.048228630048     1.165819310861
H     -3.635653905105    -1.326481098089     0.068883177111
N     -1.142226776166    -1.527527641699     2.384288574785
C     -1.588805687123    -1.939544232703     3.599563433931
O     -2.646335189810    -2.577492928227     3.808418561092
C     -0.730280130090    -1.551967347368     4.739261583490
H     -1.187145754698    -1.931121445893     5.669784215697
H      0.262931354004    -2.003098551547     4.580204542129
H     -0.666686103468    -0.450044789218     4.756485477170
N      1.476431176834     0.579981889525    -2.554294806955
C      1.684611441696     1.178517215671    -3.768559839473
C      2.854458282164     0.951561426860    -4.459183125108
C      3.823038811069     0.123136977431    -3.941882752604
C      3.590365523708    -0.475301327163    -2.732957752199
C      2.377277853094    -0.239540314248    -2.043794809413
H      0.930746876714     1.835991962359    -4.185938520080
H      3.010726118904     1.433283634686    -5.410534740081
H      4.749060953435    -0.055541709944    -4.482029254052
H      4.303578981723    -1.137467794299    -2.283673456374
O      2.270894176770    -0.866239360932    -0.919880730029
H      1.274866061165    -1.285112362327    -0.365627098485

