# STO-3G

title

0 1
C      1.394210619757     2.474742025519    -1.954711050195
C      2.332001931807     3.521479391435    -1.820627712749
C      2.138515133131     4.726617322755    -2.528544176010
C      1.028429489887     4.872596997127    -3.382727152470
C      0.107277218901     3.815883245332    -3.525919903634
C      0.290400005694     2.608393604490    -2.820248556233
H     -1.169300466257    -0.840822691525     2.754108591754
H      3.199467163320     3.414839386338    -1.168133168985
H      2.853944346739     5.537822106711    -2.414878661364
H      0.883219446722     5.799600893990    -3.932018214829
H     -0.754706625732     3.928175350927    -4.179875856594
H     -0.426431498578     1.799306222331    -2.932172362542
C     -2.990931597511     0.625746316104     0.766894897234
H     -3.540302885653     1.083337131396     1.585472729673
H     -3.492694386351    -0.164778400108     0.215196254670
C     -1.738704054767     0.993908556957     0.423924288926
H     -1.234913831447     0.490912317083    -0.390234466774
C     -0.939747602029     2.010193523860     1.121803794157
O      0.270150387275     2.151990298882     0.785822373061
O     -1.518669701327     2.797540650957     2.133776164139
C     -0.627280881920     3.687477112894     2.820644540067
H     -1.186279548852     4.229970257199     3.613070022015
H      0.196120613756     3.121990376544     3.314561642230
H     -0.195920843473     4.436668644735     2.119380310205
Pd     1.687981757781     0.966729514151    -0.705579367574
C      1.049340032523    -0.743613195509     1.699925640265
O      0.068833155532    -1.379659162663     1.114982226369
O      2.051431259008    -0.231901828137     1.086199513828
C      0.860394202004    -0.546336828278     3.210671042132
H      1.395756003055     0.351778695823     3.531002125096
C      1.350867168860    -1.730023805345     4.016980845512
H      1.218576421645    -1.517542987181     5.098219143303
H      0.749404093255    -2.624969333476     3.754390297341
H      2.423841975206    -1.920474348716     3.809976235467
N     -0.578220334285    -0.383767017482     3.444771446455
C     -1.039985065532     0.486124135910     4.379532764261
O     -0.308661284345     1.196184831844     5.112416534939
C     -2.508747639562     0.580755648659     4.525993566210
H     -2.798486597386     1.612977859175     4.268813672245
H     -3.007209830385    -0.141000331577     3.857941734637
H     -2.755911494185     0.359512462685     5.577912761222
N      1.425902701927    -0.334627949156    -2.261793374153
C      2.206344388327    -0.153744512970    -3.372757933346
C      2.008767279923    -0.934056428718    -4.490451059365
C      1.031906272452    -1.902337531912    -4.503810105012
C      0.272101624996    -2.076135027959    -3.378480226020
C      0.498246195780    -1.272277377131    -2.236310823332
H      2.977041173418     0.608393782827    -3.376175529101
H      2.623423952076    -0.777756596982    -5.361837320256
H      0.870297661228    -2.517799813537    -5.384873022932
H     -0.497165801843    -2.820711373386    -3.325449969812
O     -0.275036485025    -1.539297165469    -1.235448559902
H     -0.042088850331    -1.415692145860    -0.066066765470

