# STO-3G

title

0 1
C     -0.511549196431     2.941688238980    -1.880371028696
C      0.446238773262     3.899169342438    -1.488852701159
C      0.106654498219     5.267798375043    -1.507739333501
C     -1.170809108419     5.680317828763    -1.936377783144
C     -2.115387980185     4.721368388618    -2.350394234145
C     -1.784495844146     3.349563653283    -2.337783905205
H     -2.284492301723    -0.919019265078     0.968826947488
H      1.435246404161     3.591409092175    -1.157712705435
H      0.839132655135     6.005534643833    -1.186529991426
H     -1.424558167899     6.737662026637    -1.952640922734
H     -3.099677866943     5.035037584883    -2.691743072598
H     -2.517770430919     2.619598371262    -2.681928443533
C      0.775664115643     1.371264950816     1.495016810001
H     -0.036202654450     2.010484805211     1.835037791265
H      0.970984775336     1.367209481093     0.423891628443
C      1.541574933500     0.623485974689     2.321243783070
H      2.327652891945     0.007139961866     1.905553678799
C      1.390808853985     0.563339744785     3.783596464421
O      2.276299785712    -0.027946938937     4.458000538334
O      0.392154152499     1.336551039190     4.409692334285
C      0.249016192578     1.128524492935     5.821327196992
H     -0.572865340022     1.767103115003     6.207832373128
H     -0.004926546145     0.064288320476     6.035358788957
H      1.185530408079     1.399879342288     6.359227749656
Pd    -0.295954888660     0.997818114490    -1.640029937666
C      0.005462714408    -1.631671944141    -0.004848869110
O      1.300365836792    -1.646525548076     0.033357265433
O     -0.688630262708    -0.967576789106    -0.864580686494
C     -0.747884881220    -2.359014751338     1.119170922241
H     -0.044392524625    -2.625992431073     1.910300807255
C     -1.480458068146    -3.592606432622     0.640125491473
H     -1.987383549147    -4.073481324685     1.502243872478
H     -2.247618387247    -3.301458782045    -0.106186476295
H     -0.766616151599    -4.311705672056     0.188633959941
N     -1.725463682900    -1.411682951749     1.656497344621
C     -1.694678362268    -1.020652617615     2.960425765032
O     -0.903679878549    -1.465392067870     3.821361326725
C     -2.677911069614     0.018320400591     3.329281437378
H     -2.556481516477     0.248723241120     4.402089446948
H     -2.465949914230     0.911947270323     2.721071502046
H     -3.688012170195    -0.375171214495     3.124137714053
N      1.395275541806     1.058809235446    -2.779829242186
C      1.381155537085     1.699391506119    -3.990629605637
C      2.545873122007     1.838748126865    -4.711995844045
C      3.732925258803     1.337522284404    -4.230023283071
C      3.724603918449     0.689867464067    -3.024142717094
C      2.517042320494     0.546862796052    -2.301231714675
H      0.453542888409     2.100519938334    -4.382263105668
H      2.524655410700     2.350505588195    -5.660434389396
H      4.654776667662     1.449739652707    -4.794800698813
H      4.617285082570     0.273774009703    -2.600137133721
O      2.630442944627    -0.084388078530    -1.183492429641
H      1.897626129511    -0.870982437932    -0.600013837002

