# STO-3G

title

0 1
C      2.194072482959     2.345194187890    -1.636248964183
C      3.334697777746     2.977988277784    -1.095996756083
C      3.863232012303     4.128956036359    -1.716246356587
C      3.263615458124     4.632813518005    -2.886763129290
C      2.134744263090     3.989311524134    -3.430621074995
C      1.598166765928     2.840190426108    -2.811791715550
H     -1.714212873110    -0.564696347384     3.141372988336
H      3.817021503523     2.589723633410    -0.194539842851
H      4.736021118694     4.618559798994    -1.290640396109
H      3.671962680215     5.517619882456    -3.368772125289
H      1.664834676216     4.381621785491    -4.329779272529
H      0.719562096570     2.361487468688    -3.234822570786
C     -2.988658186519     1.878597010432     2.318044238530
H     -3.835681950599     2.081275929426     1.666663146697
H     -3.198605302479     1.532592071953     3.326859404143
C     -1.711566553929     2.014463730696     1.899242787151
H     -0.892394887343     1.759481069485     2.559821066701
C     -1.314595555445     2.441018314872     0.554163001581
O     -0.100534672011     2.323597058621     0.222559761712
O     -2.255374910943     3.038207775552    -0.305385166500
C     -1.799018943604     3.331958936589    -1.631396541741
H     -2.621074331851     3.814916672330    -2.201656496877
H     -0.932791579740     4.031856435640    -1.609071116859
H     -1.517596501564     2.395366621127    -2.161321463972
Pd     1.619838864118     0.891488042209    -0.418165335922
C      0.328752595398    -0.793796846396     1.818434664125
O     -0.808490700827    -0.827127459627     1.201121268749
O      1.440002312883    -0.397595317297     1.311172302724
C      0.269144276896    -1.204516842074     3.306170542079
H      1.168063694969    -0.817862578221     3.794946632280
C      0.211587658989    -2.707904613227     3.477205955329
H      0.190427304967    -2.960822455650     4.556301044555
H     -0.719997800598    -3.090705520009     3.008105790852
H      1.093409650821    -3.186218387711     3.003593747118
N     -0.968663126326    -0.625091803278     3.837038996584
C     -1.224048672703    -0.009255770911     5.020295639348
O     -2.316574597836     0.556552486068     5.270385989083
C     -0.160496636952    -0.021572582211     6.049738390575
H     -0.559147546284     0.461761332676     6.959848188772
H      0.095553208954    -1.071347291826     6.264100889410
H      0.703932759158     0.549059472317     5.673053181283
N      0.826369846383    -0.163683664902    -1.987516053807
C      1.648740847557    -0.412476304730    -3.053662651256
C      1.125447318308    -0.912227348995    -4.226058253431
C     -0.220438135130    -1.178840086773    -4.333469423304
C     -1.018488228055    -0.948032021466    -3.245172773666
C     -0.456992425386    -0.449587514057    -2.046667358862
H      2.708192999265    -0.194536587023    -2.982849488450
H      1.778212910157    -1.091501536159    -5.064766199236
H     -0.638341903523    -1.572077443844    -5.256483809519
H     -2.070400463349    -1.155797035213    -3.259109707935
O     -1.308187000361    -0.309173007096    -1.076478384039
H     -1.010539331442    -0.470248551508     0.010981895963

