# STO-3G

title

0 1
C      1.463541295943     2.442967241067    -1.914665343849
C      2.334433953900     3.535742291453    -1.714194039822
C      2.146485539718     4.723259530832    -2.452658146389
C      1.109910779566     4.806378728184    -3.402305193939
C      0.256568664419     3.704446346643    -3.610148450590
C      0.434209206730     2.514426370192    -2.874073799521
H     -1.300395576563    -0.724658403236     2.740984316873
H      3.146455321712     3.477678971923    -0.987918004665
H      2.809985206184     5.569200237651    -2.288562024359
H      0.969256267886     5.719729257773    -3.975131915836
H     -0.549642012206     3.768326282120    -4.337676397378
H     -0.232070656959     1.671300002794    -3.035590213136
C     -3.001736120597     0.619154605616     0.414940797633
H     -3.663820993271     1.097413692212     1.130916904886
H     -3.420425804628    -0.188665432254    -0.179733101780
C     -1.713398381715     0.979514330212     0.238545333268
H     -1.108719995587     0.456952228978    -0.489789283282
C     -1.008227033347     2.014118759005     1.007001399633
O      0.227435454570     2.174323797308     0.795096512778
O     -1.702106745944     2.801381242569     1.944044706026
C     -0.902322178969     3.718531559338     2.704034209101
H     -1.549037903970     4.259310375148     3.427895650218
H     -0.120708679731     3.177549414589     3.285610153460
H     -0.417884821926     4.467947191804     2.038549032389
Pd     1.728624133325     0.969353178669    -0.619323598356
C      0.985991229680    -0.687975551455     1.783890575979
O      0.038146685080    -1.344286672813     1.168509410196
O      2.018676537913    -0.192653107755     1.207562512741
C      0.723777137121    -0.445429621765     3.275520681747
H      1.253676835091     0.456115755611     3.595363664497
C      1.164702271437    -1.609879926529     4.137627249033
H      0.987120282672    -1.364915517212     5.205460972842
H      0.566100122539    -2.506441390304     3.873972937913
H      2.243773747759    -1.816737950009     3.985030900302
N     -0.721628488038    -0.262267459789     3.438503781965
C     -1.219796778138     0.577392815695     4.380807879109
O     -0.525025093732     1.267265558852     5.165349938841
C     -2.692994167185     0.643997624271     4.451847824702
H     -2.976040419914     1.328739744900     5.269601219704
H     -3.055694355048     1.026276457718     3.486051438328
H     -3.073674657201    -0.373951925643     4.642418349511
N      1.591359706767    -0.376646315441    -2.151965008652
C      2.432696294442    -0.202031301572    -3.218559146962
C      2.331326819489    -1.022743612126    -4.319984268570
C      1.390676545954    -2.025486001503    -4.361034615822
C      0.568667375732    -2.191751984132    -3.279143276463
C      0.696057428885    -1.346000205671    -2.152011430197
H      3.175654731856     0.586975060884    -3.200051925980
H      2.993386257170    -0.871503635470    -5.156855416348
H      1.305135252682    -2.673205759043    -5.229548518522
H     -0.176646971849    -2.961568700865    -3.248837054645
O     -0.128853306086    -1.609976423546    -1.192896474272
H      0.011155192311    -1.433382693533    -0.013714365720

