# STO-3G

title

0 1
C      1.280284043860     2.369394348940    -1.957433379172
C      2.046120773797     3.528508624626    -1.705714464257
C      1.844324210589     4.684073350056    -2.489646566754
C      0.901003493073     4.670029562190    -3.535180660435
C      0.154170477873     3.503120436760    -3.792802766490
C      0.345674004051     2.344928845901    -3.011047809628
H     -1.521635736771    -0.583401498841     2.712460238746
H      2.787878027870     3.544682989171    -0.905607705330
H      2.426139259150     5.580281464197    -2.286976361369
H      0.750347501863     5.558383672033    -4.143697156320
H     -0.580593778143     3.491600408647    -4.594909445622
H     -0.241245565894     1.452283210318    -3.210432700490
C     -2.082735235692     0.552524503620    -0.384516288378
H     -1.111300383558     0.338020971546    -0.820647508485
H     -2.907226739928    -0.039786873646    -0.770093142262
C     -2.252270992652     1.464242183207     0.598181650408
H     -3.232579489547     1.646118754900     1.013948017349
C     -1.166687671049     2.258667750456     1.194190533505
O      0.019214467285     2.130818866595     0.770343365142
O     -1.484846069980     3.168108797882     2.216693365090
C     -0.371927542579     3.808678096049     2.855865912919
H     -0.745736037657     4.475680046498     3.662450272867
H      0.301780412176     3.056415281357     3.326395436867
H      0.203614760986     4.424608790855     2.128968294549
Pd     1.548781591164     0.951394221209    -0.601802673163
C      0.794673120134    -0.664764914604     1.809875097271
O     -0.128065164476    -1.340552519111     1.176167910863
O      1.836656230841    -0.163030396213     1.254982445207
C      0.504202230706    -0.414910663265     3.293128881150
H      1.074616630708     0.453061647774     3.633396169304
C      0.855141647694    -1.607299933484     4.159116830241
H      0.663186737322    -1.358945904678     5.223665439081
H      0.214617520153    -2.467355963174     3.873050314075
H      1.924492732648    -1.874289249636     4.033957248021
N     -0.933122792937    -0.150488208875     3.420043045324
C     -1.403825784490     0.686574302305     4.379520934035
O     -0.685115290869     1.312127676444     5.195188155374
C     -2.872726376491     0.828947389072     4.430426765963
H     -3.131291318540     1.510419693992     5.259274321386
H     -3.204259058154     1.248779988787     3.469283308534
H     -3.308163352758    -0.171462122331     4.595443264581
N      1.636881163719    -0.453687955053    -2.079844524173
C      2.526043970702    -0.245789354292    -3.100357390529
C      2.589060580624    -1.132036794077    -4.152681259573
C      1.766578455425    -2.233847252826    -4.189590059292
C      0.893543035591    -2.430019266085    -3.153704674056
C      0.849539170710    -1.514187869626    -2.075700971990
H      3.178788075912     0.619324151010    -3.083953381799
H      3.288017545894    -0.955310902841    -4.953755629480
H      1.811736829569    -2.934447603085    -5.019217552237
H      0.234804885417    -3.275078119890    -3.122663813602
O     -0.007670830331    -1.816198881620    -1.159646548575
H     -0.034456152721    -1.511792909576     0.008167452717

