# STO-3G

title

0 1
C      0.357540427406     2.230642182450    -1.889472256019
C      0.413041784265     1.433755472909    -3.050558862966
C     -0.187145780046     1.879550725769    -4.244242294696
C     -0.845408079400     3.125988343123    -4.279615831241
C     -0.896680726137     3.926674689062    -3.121010384453
C     -0.294045694685     3.479514650205    -1.927204289919
H      0.823048714206     1.878838650630    -0.972385143374
H      0.927595728074     0.475264787323    -3.021577438641
H     -0.134176283375     1.265281382714    -5.140574077186
H     -1.304524908240     3.473569231358    -5.202418966062
H     -1.393731059564     4.893791442310    -3.149360820102
H     -0.324212955796     4.103183995072    -1.036085743720
C     -2.204738562823     0.886962115562     0.009873529180
H     -1.984769861768     2.234583203745     1.225408996678
H     -2.052848158235     1.534088864777    -0.855451168972
C     -3.410978622633     0.600720171740     0.550759230657
H     -4.316218996232     1.054134947214     0.163790566876
C     -3.579648342627    -0.315784481103     1.687294177136
O     -2.577587559486    -0.941604401372     2.135298687011
O     -4.873055456445    -0.551607800069     2.184605775243
C     -4.964686539115    -1.475788924500     3.277869428516
H     -6.027566796408    -1.576349270376     3.586613093539
H     -4.593307476512    -2.482052428899     2.977971910686
H     -4.381355463852    -1.111308189721     4.153750308576
Pd    -0.525377831913     0.001758800326     0.575934416390
C      2.562676267732     1.091009035534     1.846642245263
O      2.632674820116     0.548874462684     0.613410325876
O      3.396279062684     1.919855567628     2.250920783889
C      1.320834793405     0.777311886562     2.764820534720
H      1.568749527621     1.279811477474     3.706799825361
C      1.098078250332    -0.682315223028     3.093275991624
H      0.320583487364    -0.763211539121     3.881716736447
H      0.740584715149    -1.251229908960     2.218407796669
H      2.037872259383    -1.139277907945     3.466853746818
N      0.079091243630     1.293247429020     2.137328284984
C     -0.436909185684     2.453127852361     2.405233375289
O     -1.554340115579     2.908588986229     1.830225202279
C      0.172072672401     3.405336344161     3.354023400535
H      0.140566292113     2.966680205981     4.364903422627
H      1.204409734803     3.620359861414     3.025614927222
H     -0.411186599647     4.345399403140     3.351418970180
N     -0.688896968648    -1.315976955365    -0.973148015700
C     -1.624368505730    -1.661898707624    -1.905206531883
C     -1.305923195013    -2.594343674915    -2.874087003481
C     -0.057563395009    -3.184798612016    -2.903669038897
C      0.864050588510    -2.823378916221    -1.953370519518
C      0.508763397780    -1.864711330916    -0.980681371122
H     -2.607196010989    -1.205997899672    -1.887523930542
H     -2.045230076178    -2.863287087291    -3.610403719219
H      0.189991298131    -3.920175716247    -3.664560751834
H      1.849543144569    -3.241488703343    -1.918991496254
O      1.390663177274    -1.519310870366    -0.094731136320
H      2.096406740940    -0.290578164669     0.357642396603

