# STO-3G

title

0 1
C      0.436095174140     2.076554240530    -2.043605057746
C      0.261729520720     1.243983844960    -3.167518515460
C     -0.445148513542     1.710078336599    -4.293072203827
C     -0.980168004068     3.014589477521    -4.298534543959
C     -0.798033656300     3.853105522215    -3.180562483863
C     -0.088502621417     3.384464063934    -2.055646834758
H      0.982110629494     1.711368747189    -1.177627156464
H      0.684506205148     0.241086619671    -3.164392310426
H     -0.569070948598     1.066615793888    -5.161521492746
H     -1.522272939846     3.377706089490    -5.168873893293
H     -1.196513476514     4.865220744704    -3.188697249266
H      0.066659367558     4.037759288052    -1.199429356106
C     -2.095773194686     1.042400644221     0.095315392634
H     -2.039473560014     2.177257834370     1.537089318057
H     -1.864554871587     1.774391994871    -0.679543262734
C     -3.346656649233     0.723118870961     0.501083976427
H     -4.210722695705     1.227998208304     0.084924310234
C     -3.620197159626    -0.297859078177     1.522487197682
O     -2.660951638686    -0.955103617218     2.016574008059
O     -4.954744084636    -0.583562000644     1.858894533454
C     -5.145833087389    -1.603055497968     2.849792248104
H     -6.233372720878    -1.736389262200     3.035770100571
H     -4.730712186237    -2.576264124811     2.501969081915
H     -4.661640077405    -1.316017263308     3.810817708069
Pd    -0.483652248426     0.066051926772     0.702882875572
C      2.575096175163     1.276054179986     1.656833433128
O      2.606943143415     0.612339486888     0.483194511817
O      3.323551367663     2.241487306071     1.888268387027
C      1.488999152941     0.909180889548     2.738709536500
H      1.837210429068     1.448897862997     3.626787783656
C      1.392360229765    -0.552411906534     3.118904905705
H      0.817220696475    -0.644741128581     4.063697950963
H      0.855917319574    -1.140263400468     2.353522700782
H      2.404965737806    -0.980174454006     3.271527019202
N      0.151530820117     1.341590263409     2.266194239456
C     -0.455538896611     2.413040039633     2.675055073789
O     -1.650798364446     2.799614744814     2.220939785114
C      0.125328451815     3.334698604917     3.670170629955
H      0.234918517162     2.797782152709     4.626857999702
H      1.092044381569     3.703792466907     3.284184941027
H     -0.557584414148     4.193160238007     3.814121161352
N     -0.689247768830    -1.252184543607    -0.842727201159
C     -1.638600202383    -1.560737505162    -1.774235243372
C     -1.360345324756    -2.508877481281    -2.740318062999
C     -0.139373869700    -3.153734824551    -2.766726929255
C      0.796965405890    -2.828535475061    -1.817923824461
C      0.483854036044    -1.851297867067    -0.849004289933
H     -2.600541853554    -1.062696041839    -1.760078012754
H     -2.110486977960    -2.747630004506    -3.476037978225
H      0.076213555333    -3.901919768670    -3.524846053161
H      1.763832404384    -3.287937157801    -1.782568492015
O      1.384538925812    -1.536984828140     0.031806456742
H      2.099359280279    -0.275583797889     0.347190475772

