# STO-3G

title

0 1
C      2.481874517835     2.498161957748    -0.505207914403
C      3.618864855981     1.740474785233    -0.865157550268
C      4.441121645162     2.170085035981    -1.926718066449
C      4.126393484503     3.343780400800    -2.638096961495
C      2.986401185934     4.089532030956    -2.284071571790
C      2.163437305091     3.672341503822    -1.216466549486
H     -0.716025107663    -1.759942136913     0.159863286474
H      3.855401890467     0.817491178013    -0.338670458872
H      5.315249905616     1.582502044801    -2.197468064174
H      4.759063626003     3.670423548987    -3.459540530286
H      2.733884364801     4.995008984480    -2.831239864866
H      1.284556752179     4.265835024437    -0.976473727349
C      0.834071100702     3.620804815822     1.729859844205
H      0.916088307841     3.594225190304     2.813152109704
H      1.462414038639     4.335504000544     1.215787628333
C     -0.257516489078     3.007308084612     1.078707713675
H     -0.433705060433     3.175519094006     0.024480610736
C     -1.388226742917     2.385443678074     1.798735221634
O     -2.426835894618     2.098910522888     1.149145725427
O     -1.386024817945     2.396830746277     3.203533019394
C     -2.512664941268     1.774398225989     3.836605324379
H     -2.388920528900     1.820582991651     4.939621685659
H     -3.459828534667     2.293659569676     3.567625839416
H     -2.584555296022     0.701997775201     3.550484485756
Pd     1.541586799143     1.682635224215     1.054495949130
C      1.128787564943    -0.740189409832     1.824887761726
O      1.928016798893    -0.470271514890     0.785883292787
O      0.826076203169     0.242366690936     2.605240967715
C      0.395135331575    -2.079594314317     1.948583842048
H      0.113892683896    -2.225200539867     2.995972546635
C      1.174162311744    -3.268380164933     1.434114337011
H      0.583171064611    -4.191277688385     1.607161082884
H      1.339488850482    -3.161547600127     0.342033015299
H      2.147189536862    -3.349995620957     1.959219513234
N     -0.833940313165    -1.940550771182     1.160898845460
C     -2.028925484348    -1.751070118969     1.786276025848
O     -2.190018583862    -1.740861925697     3.030894882283
C     -3.205416922578    -1.546881319964     0.916280214364
H     -3.981631309571    -2.264571443457     1.225195323556
H     -3.543667620283    -0.508061310159     1.062091867057
H     -2.938217790017    -1.707600166412    -0.143615441284
N     -1.552251509677     0.151517620276    -1.436732285968
C     -2.280159138263     1.213545374809    -1.899942980484
C     -1.658812550212     2.202670557215    -2.646900842807
C     -0.317631660187     2.106482857846    -2.955533526462
C      0.385602280625     1.034430281126    -2.468952767093
C     -0.303614563532     0.067089168562    -1.698381751322
H     -3.336799257852     1.283164940332    -1.669330854698
H     -2.242423109652     3.032231273616    -3.009758040396
H      0.170182993218     2.861633999182    -3.566104796262
H      1.421408623270     0.884726992838    -2.699160327944
O      0.423982813519    -1.003235745072    -1.268734376795
H      1.223585105044    -0.775790428928    -0.707389308357

