# STO-3G

title

0 1
C     -1.684945616559     1.120161842686    -1.847233194383
C     -1.210812762760     2.445755337210    -2.052767711483
C     -1.761829052615     3.509877859478    -1.331300565030
C     -2.799800098221     3.274183862358    -0.392710077861
C     -3.275464794025     1.973126116579    -0.175333569067
C     -2.725989773082     0.887774198597    -0.905118217689
H     -1.358255613278     0.322278730724    -2.507618890930
H     -0.419373843702     2.625431736963    -2.775358978610
H     -1.398014234647     4.521768839926    -1.493265861159
H     -3.232168035092     4.111874344302     0.149860020562
H     -4.086248943613     1.793800968339     0.525902992083
H     -3.144308058733    -0.109897004088    -0.819060431390
C      1.080900236784    -0.038242097585    -3.509362744171
H      0.248157084161     0.047371220835    -4.204540245651
H      1.601510729247     0.878846310467    -3.241498614608
C      1.464570087402    -1.210722098491    -2.956810101653
H      2.291489033271    -1.222585293737    -2.262566319489
C      0.809382194986    -2.508203618982    -3.174630542057
O      1.214662379532    -3.504960258414    -2.515386005256
O     -0.238124217002    -2.618288660033    -4.107568866593
C     -0.915920122543    -3.882043632939    -4.137969628715
H     -1.723151054281    -3.848957300629    -4.900152276672
H     -0.214380980998    -4.703817132619    -4.405772098986
H     -1.385283924745    -4.102108045666    -3.151910107349
Pd    -0.402988927501    -0.158779106437    -0.252063664684
C     -1.231566290092    -2.887027412744    -0.313163780348
O     -1.871164148323    -3.929676255699    -0.536900174177
O     -1.407520328988    -1.739892084347    -1.000497374663
C     -0.152644863805    -2.788732610242     0.818236099489
H      0.332979214235    -3.771480472824     0.869104466111
C     -0.775898217894    -2.488210153950     2.162931759669
H      0.016428074704    -2.451873281725     2.938744013091
H     -1.287354409558    -1.505213408189     2.129661762800
H     -1.509421330544    -3.278228901433     2.428814362221
N      0.753601826487    -1.666039898179     0.496280995872
C      2.063171591271    -1.723755427724     0.366290520598
O      2.812865623179    -0.778424580853    -0.105066300669
C      2.790853008898    -2.944992615537     0.771282516794
H      3.877696605270    -2.765347176763     0.677689653434
H      2.542801442327    -3.170109387310     1.821513722631
H      2.505619036877    -3.766507276361     0.089050282691
N      0.458514380633     1.498894703106     0.597416593284
C     -0.301674395050     2.152920580518     1.527838868941
C      0.035225401470     3.431640727442     1.921230135498
C      1.134806432588     4.062373001804     1.382558628815
C      1.895952144683     3.380806682853     0.470386295822
C      1.538588234611     2.063298552324     0.105070382282
H     -1.178478686653     1.670186164500     1.942783006340
H     -0.577532000568     3.942338565351     2.645063503047
H      1.399290076131     5.072603991860     1.683061645912
H      2.776937412839     3.804260266957     0.032068166201
O      2.340292202462     1.469974754147    -0.727691779782
H      2.491015881600     0.322613071322    -0.500472017717

