# STO-3G

title

0 1
C     -0.664676813564     2.261836938166    -1.111904966491
C     -1.302929052284     3.523113924942    -1.190396768905
C     -1.822107757525     3.988431947016    -2.419270385412
C     -1.705088720624     3.200422425318    -3.579543187004
C     -1.057939167446     1.949809511852    -3.507826253580
C     -0.534293934632     1.485035989481    -2.284317428215
H     -2.671810543875     2.432083753904     0.950950637218
H     -1.368797443603     4.169312979058    -0.313130628456
H     -2.303295323496     4.963758315514    -2.467778147660
H     -2.102736791147     3.557561781131    -4.526756163756
H     -0.955125833444     1.338424769415    -4.402504323502
H     -0.025110165283     0.525362928921    -2.244566457594
C      0.372428330890     0.493633117994     2.853939315927
H      1.074234130999    -0.307109777458     2.649470799454
H     -0.651403051162     0.180270982450     3.025272465107
C      0.743640022767     1.809485766039     2.975092199707
H      0.007577289970     2.560532468829     3.230901806574
C      2.135686101612     2.283060722301     2.912894818867
O      2.346382482892     3.523886663078     2.857439954578
O      3.190659778591     1.356252904797     2.839433927891
C      4.508621294917     1.907533906907     2.718301090281
H      5.247250141745     1.079146129061     2.663051865166
H      4.600794895926     2.513214686194     1.789239743375
H      4.756236381883     2.539117239789     3.601070126970
Pd    -0.064520668338     1.606255747701     0.683418881835
C     -1.207774446704    -2.702162790518     1.396783614982
O      0.055075553270    -2.272629371929     1.543852970224
O     -1.684958686432    -3.652927893717     2.039834449509
C     -2.131632800252    -1.902470113702     0.406336109342
H     -3.150391992565    -2.282700042189     0.581234902222
C     -1.760017959409    -2.137127526173    -1.041238110693
H     -2.458254191712    -1.579724941285    -1.699076065056
H     -0.729800372256    -1.770932174505    -1.231791530369
H     -1.815971186611    -3.219038491151    -1.281210854127
N     -1.942176083820    -0.492222541087     0.656457227867
C     -2.738750162642     0.401380297276     1.023942309810
O     -2.180346627531     1.670378385083     1.322612464831
C     -4.182942441034     0.212512296968     1.246456677072
H     -4.637491369398    -0.095994934516     0.289532123705
H     -4.310494352908    -0.567028972801     2.016963979269
H     -4.626827942147     1.162127149276     1.594737026112
N      1.788034026253     1.396938702937    -0.065647915945
C      2.558057311416     2.445686136159    -0.483070539978
C      3.790537879861     2.207996207094    -1.052266196804
C      4.252775396482     0.920646282436    -1.213779303366
C      3.457931611082    -0.118966493578    -0.809091106805
C      2.189169653136     0.138515436856    -0.233818048937
H      2.205527948744     3.461810379262    -0.348588140441
H      4.393415404913     3.041167367685    -1.373266567380
H      5.224716479115     0.732780855216    -1.661773341551
H      3.756931558171    -1.141171201718    -0.921888472252
O      1.487354354721    -0.884489068070     0.070734830159
H      0.501246075669    -1.592015530850     0.898160448069

