# STO-3G

title

0 1
C      3.176722713594     1.773174384738     2.196806743232
C      4.211211162700     2.238663410709     1.356415789972
C      4.807231972182     3.493206438431     1.603633730723
C      4.383806442414     4.278644800125     2.693381231814
C      3.354253904166     3.809428163064     3.532223508699
C      2.747116292488     2.560055709621     3.285722259297
H     -0.219011676840     0.211497607963     2.407287092686
H      4.547652179507     1.640096806838     0.512749477777
H      5.598141392017     3.852248111670     0.947778851550
H      4.847725005464     5.243378692165     2.886038660212
H      3.019551696507     4.411419466741     4.374907077521
H      1.946177173325     2.217127758882     3.937514819617
C     -0.232049773502    -1.291704260283     3.837844158975
H     -0.864543235371    -0.921691155600     4.641886917380
H      0.831044096030    -1.060107691059     3.900901420049
C     -0.690909316516    -2.060575172881     2.815032306928
H      0.006910169233    -2.395784057154     2.059598775971
C     -2.086449872530    -2.497319482427     2.654284166487
O     -2.950354410975    -2.170448542235     3.513209040275
O     -2.439205706560    -3.233619809690     1.508210998558
C     -3.825961675152    -3.583614908406     1.390848667000
H     -3.985825584657    -4.149736178397     0.448546817790
H     -4.145277342020    -4.225021778426     2.243013636994
H     -4.465808731451    -2.672186694078     1.358083626477
Pd     2.313337268618     0.032808965158     1.827797891155
C     -3.583602172091    -0.108639929251    -0.501308269082
O     -3.743483964825    -0.162201450408     0.858687072052
O     -4.515344559502    -0.152357992432    -1.308088059629
C     -2.077275874021     0.017924353397    -0.911761585987
H     -2.004242677869     0.839253818665    -1.640391587468
C     -1.577474163660    -1.257436083377    -1.554732477325
H     -0.519180816890    -1.138417928165    -1.862398968273
H     -1.639171302245    -2.093242991258    -0.824464180583
H     -2.189813318884    -1.504365721313    -2.447159312713
N     -1.324281766846     0.201496057933     0.321698436399
C     -0.260560178797     0.849156769825     0.544271879179
O      0.291512384365     0.835441051802     1.807975896189
C      0.460712026950     1.641819012529    -0.461978536442
H      0.786334306537     0.964844178201    -1.269564495464
H     -0.229412499280     2.412516770161    -0.844541753106
H      1.331355242540     2.133936049714     0.007743802649
N      3.935040709531    -1.165614011382     1.816110073231
C      5.281435972086    -1.146474242953     2.030497658146
C      5.997763415253    -2.324475409320     1.934526579100
C      5.365435269048    -3.517335268277     1.632620057112
C      4.007440957026    -3.513481050123     1.430354471196
C      3.301776379932    -2.296424295721     1.536455045883
H      5.782234904537    -0.214983214876     2.267792349240
H      7.062222561928    -2.310069384053     2.102009233474
H      5.932167481318    -4.441931739740     1.561791554760
H      3.452084894662    -4.401317246055     1.205619049558
O      2.015484702074    -2.269332143718     1.374948970089
H     -2.823185243493    -0.095368174853     1.254029369492

