# STO-3G

title

0 1
C     -0.020130823675     2.645855993085    -2.070615001276
C     -0.150238687829     3.919091804606    -1.476233472579
C     -0.753117148773     4.973274989960    -2.193880555448
C     -1.234031192682     4.761777058687    -3.500969373222
C     -1.109069802174     3.488861510845    -4.090806005824
C     -0.498358114490     2.432443526738    -3.382214626081
H      0.018728511707     1.251024827442     1.408748314650
H      0.203377190273     4.092778947991    -0.462361694535
H     -0.847988546359     5.953211364359    -1.729477140617
H     -1.700618910360     5.576646887065    -4.050264509702
H     -1.483803098800     3.315704794625    -5.098112335268
H     -0.407195858894     1.453721949044    -3.848249660437
C      1.950703577136     0.898090505795     2.242539601991
H      2.488912050734     1.841366062076     2.319614677762
H      2.188130611153     0.269668978915     1.384670273293
C      1.032612072140     0.488753143535     3.157405812060
H      0.510821747289    -0.446576156069     3.018297972745
C      0.660245379717     1.238455166193     4.367920401115
O     -0.116681235784     0.702479575410     5.207166570158
O      1.229559666133     2.504455781899     4.610503611080
C      0.819671307621     3.154638029459     5.821310359424
H      1.327649362636     4.139608858797     5.899626848487
H     -0.280271117301     3.328270034774     5.822950689374
H      1.100493320034     2.546228335338     6.710677789933
Pd     0.793288321003     1.158133543374    -1.054017186052
C     -2.505889458908    -1.803367631555     3.150862658434
O     -1.270701086587    -1.628648356014     3.743533695094
O     -3.537123460702    -2.067088583386     3.782110263085
C     -2.429447453040    -1.609024617434     1.618713374580
H     -3.469682498964    -1.466756905106     1.280526988867
C     -1.857464823503    -2.831474363106     0.931612141433
H     -1.866741763650    -2.680362569976    -0.166923328994
H     -0.804211859834    -2.975077419972     1.257343086104
H     -2.452776864626    -3.733497208482     1.183008629116
N     -1.520367773723    -0.521651203012     1.361655020996
C     -1.588998910264     0.462262849552     0.581319442630
O     -0.568157244268     1.411194000033     0.606587667435
C     -2.675149906586     0.711018662752    -0.378817899699
H     -2.722181312487    -0.144118766534    -1.073178098536
H     -3.612516790184     0.811772707227     0.192832201316
H     -2.471660560695     1.648900271945    -0.927597347367
N      2.263321283243     0.643119581968    -2.334937549390
C      2.827168704507     1.034027937452    -3.513060554596
C      3.934316281339     0.358296480380    -3.990418518557
C      4.477477694147    -0.700763189316    -3.285647322753
C      3.899523427050    -1.070065272673    -2.096515644167
C      2.771082957188    -0.360640732494    -1.631579443760
H      2.405661250263     1.862795371042    -4.070005433502
H      4.378555839196     0.665634805341    -4.922681385641
H      5.349328541771    -1.228013894886    -3.663492663475
H      4.273092374399    -1.872582398672    -1.493861772888
O      2.223824772616    -0.673564487716    -0.499660157555
H     -1.326025396107    -1.601489700202     4.725310426800

