# STO-3G

title

0 1
C      1.242118345831     2.869290452849    -1.066407490440
C      2.622090391796     2.785490609633    -1.355141527218
C      3.231975684841     3.741280346794    -2.193164444184
C      2.468043241491     4.778319482740    -2.763947082215
C      1.089056880419     4.853091639676    -2.493255821093
C      0.475611100486     3.903494395648    -1.647126396916
H     -0.156963346488    -2.790532557634     1.279725092598
H      3.219967984754     1.970837841352    -0.949701304492
H      4.296592313151     3.666015917683    -2.405735522608
H      2.940106901311     5.511403584264    -3.413900795801
H      0.488598505047     5.645896944635    -2.935593864027
H     -0.595173284232     3.981316031780    -1.462817454837
C      0.903192112556     2.672693894216     1.974866302196
H      0.978012230837     1.999237216560     2.820701061490
H      1.817066603885     3.174377555692     1.674004468020
C     -0.331865821356     3.085964826579     1.477503063314
H     -0.368131963658     3.878418270253     0.749180467736
C     -1.639767894735     2.705770342724     2.035344960680
O     -2.667504234556     2.930524264188     1.344335283658
O     -1.722397341032     2.100175580866     3.298914553339
C     -3.031215772321     1.685392354321     3.714042233651
H     -2.967267503244     1.221606737833     4.722278302488
H     -3.723250583421     2.555867691767     3.775671929979
H     -3.447008668601     0.927616449481     3.012162571354
Pd     0.481738312655     1.440588783060     0.131169382488
C      1.780728847613    -1.962157625623     2.222891393207
O      1.441948417293    -2.661890988005     1.094479264404
O      2.664394940086    -2.302090570256     3.016929689826
C      0.923611317825    -0.669924391759     2.474730194206
H      1.668975072762     0.127504806676     2.534574765058
C      0.222820476688    -0.755635012980     3.819691088586
H     -0.296548586448     0.194228564757     4.044496585105
H     -0.521770326353    -1.578294765588     3.800371610052
H      0.958143066073    -0.953829844686     4.627664847998
N     -0.090069841479    -0.249505597843     1.462933454723
C     -1.005225675638    -1.060188662414     1.025063620366
O     -1.093592723591    -2.385793871104     1.235175872514
C     -2.105496540625    -0.505016530680     0.231201336758
H     -3.045308550772    -0.727931748463     0.763302272759
H     -1.983144187683     0.580861983087     0.108096733918
H     -2.098200604603    -1.008959252175    -0.751333086468
N      0.354104980669     0.316061784125    -1.633487908857
C     -0.412121972167     0.669716739453    -2.710940543727
C     -0.496187268200    -0.169281477277    -3.802243500541
C      0.204650634476    -1.355381601155    -3.830962735728
C      0.990253616361    -1.674862806789    -2.755387740578
C      1.059191187526    -0.792085463084    -1.652555018797
H     -0.981279864136     1.591141689033    -2.691781466809
H     -1.113675174369     0.109940114572    -4.640119511565
H      0.142831362767    -2.017737554804    -4.690410352825
H      1.574943219055    -2.572446066120    -2.724094161671
O      1.848146559076    -1.121406840543    -0.678795521832
H      1.646961624110    -2.038695124870     0.164220571469

