# STO-3G

title

0 1
C      3.658326472732    -1.023552335733     0.333451222664
C      2.942213746630    -2.018780161451     1.057982719700
C      3.241233135158    -2.252306996523     2.420792609721
C      4.271391109894    -1.525885146781     3.050064526638
C      5.001025983887    -0.553887695814     2.330958399795
C      4.693532467634    -0.300445302669     0.983886814280
H      3.471774756748    -0.891367163641    -0.727078653692
H      2.193376961049    -2.622232282450     0.549323964313
H      2.685714578287    -3.005959168765     2.972279614398
H      4.504083618444    -1.714732285712     4.094876743544
H      5.796951528081    -0.000472548099     2.821503272936
H      5.255873268072     0.442580008281     0.423935374842
C      2.110813749863    -2.326639388022    -2.560376906288
H      1.125671578330    -2.744987140833    -2.739580658582
H      2.658827595350    -2.748226884707    -1.722272058850
C      2.606353471090    -1.287751524655    -3.268229360246
H      3.557993591792    -0.841496247831    -3.000345792986
C      1.915475433531    -0.626025757200    -4.387759543949
O      0.861117342163    -1.127748130343    -4.866814199099
O      2.541344987894     0.474894293341    -5.004150473298
C      1.820929154593     1.072305650263    -6.090881923736
H      2.401564303922     1.930629253713    -6.490934048941
H      1.670729042054     0.338923422644    -6.915586525376
H      0.830517957844     1.448012085090    -5.746617185067
Pd     1.590953317673     0.102684625853     0.936021558682
C     -1.158401127716    -0.918231145965    -0.085801665155
O     -0.132601666721    -1.063393732523    -0.962106931774
O     -1.879727441176    -1.877382669923     0.240115246192
C     -1.380172639231     0.482733309995     0.577207467183
H     -2.233851379817     0.315937461779     1.247810280511
C     -1.750553913598     1.565132714257    -0.422674805401
H     -2.168275505199     2.448133710850     0.096219134482
H     -0.860961260149     1.896821146722    -0.985565037146
H     -2.512533341399     1.186145526315    -1.135549296015
N     -0.188820759739     0.891632224957     1.355116852702
C     -0.119749706475     1.809370477811     2.358799490439
O      0.968336970014     2.280339854978     2.791398894983
C     -1.373754193554     2.189347961030     3.053820999844
H     -1.114348872999     2.858304729160     3.894583683479
H     -2.028289779582     2.725497184911     2.352655250026
H     -1.851266427814     1.274535203562     3.445079102146
N      2.171705587252     1.689900958176    -0.134201082587
C      2.867509387919     2.702995708895     0.462173892687
C      3.293654544013     3.770692532527    -0.299328871920
C      3.008520648170     3.832435357042    -1.646099535090
C      2.280539224432     2.818188774706    -2.212853876614
C      1.835582874104     1.734746271643    -1.418981844253
H      3.129130946443     2.642479951878     1.511618171857
H      3.857201652125     4.559888166097     0.169844610044
H      3.350119650550     4.671214258749    -2.246471999215
H      2.026316566684     2.813156271210    -3.253789951384
O      1.126814840285     0.849668516158    -2.008762725608
H      0.376138327385    -0.234313017424    -1.370384705483

