# STO-3G

title

0 1
C      0.351885744751    -1.124042914960     1.206474790311
C      1.732396880146    -0.767684640610     1.164418922992
C      2.378249018694    -0.270715163924     2.331153316203
C      1.657804650051    -0.143761159354     3.529765576968
C      0.288177972575    -0.494865954680     3.572908624155
C     -0.361415441374    -0.967172986067     2.420097144472
H     -0.168322710534    -1.565150667466     0.362645523588
H      2.332016287289    -0.987158836219     0.278817343075
H      3.432528103914    -0.007784023489     2.291812622539
H      2.152097272383     0.230169297092     4.423211791138
H     -0.267073608431    -0.388320296775     4.502004737791
H     -1.413810807925    -1.232845001704     2.426686513777
C     -1.294616365386    -0.976009823672    -2.197519935260
H     -1.237305818958    -0.273351791320    -1.370973864402
H     -2.288212127410    -1.364143576904    -2.399905922878
C     -0.211810487463    -1.379633140119    -2.896830078758
H     -0.313011262565    -2.114531243748    -3.682750597601
C      1.159633055053    -0.907896373419    -2.651217210655
O      1.356360760117     0.071126106519    -1.866331488102
O      2.196124592823    -1.404127373094    -3.457412414749
C      3.529199003950    -1.077945318723    -3.042473077787
H      4.253407322475    -1.547687855975    -3.743290332907
H      3.695837790595     0.022087130064    -3.057848436247
H      3.735520069399    -1.482281390670    -2.025070783704
Pd     0.707341633724     1.066807194639     0.096267980127
C      2.276148676209    -3.925354759565    -0.700133349852
O      1.155925430942    -3.541553906457    -0.850234505158
O      3.401570381145    -4.295783044312    -0.555686184338
C      0.159434878847     2.908588809394    -0.838329854571
H      0.154351771780     2.918229021885    -1.929792727204
C      1.064554653748     3.853306880723    -0.113172178857
H      0.682602221313     4.885956585148    -0.244522095904
H      1.080287843855     3.619536781178     0.972073299086
H      2.090069773409     3.783367406395    -0.528252788332
N     -0.855321182179     2.443540570759    -0.072378980166
C     -2.137590603448     2.077571596388    -0.242987606432
O     -2.629983814446     0.978951161392     0.120069631971
C     -3.023007531036     3.119723699436    -0.797367309896
H     -2.966495959140     3.998617270599    -0.132363399883
H     -2.673139642176     3.370009172866    -1.811567755395
H     -4.058191115923     2.732209882274    -0.831343667128
N     -2.260512668044    -2.704381049978     0.256846045469
C     -1.830297644668    -4.000857810921     0.355185332529
C     -2.676882136973    -5.038555576691     0.004610143846
C     -3.950114577615    -4.777749034973    -0.455198053881
C     -4.351814304136    -3.470378541608    -0.550772801710
C     -3.448709707920    -2.451255200389    -0.172644169501
H     -0.833711282447    -4.211740854503     0.723791921133
H     -2.325350129644    -6.053315263996     0.086252277927
H     -4.616780322841    -5.588067174159    -0.736673221592
H     -5.324174738719    -3.192251418717    -0.901667988135
O     -3.945844688593    -1.218346377974    -0.337406733327
H     -3.349904552920    -0.449651892569    -0.098485028850

