# STO-3G

title

0 1
C      2.292878219928    -0.287851753684     0.784172728183
C      3.105258428873     0.318097616172    -0.227023094802
C      3.690784797580    -0.491622256728    -1.248437225790
C      3.450680211834    -1.867104749435    -1.272955499533
C      2.645606310037    -2.479731357419    -0.265472942498
C      2.086985753596    -1.707351355858     0.752875926352
H      1.933469759902     0.276266913333     1.646518820841
H      3.420145327563     1.353352071562    -0.125771152002
H      4.327524636429    -0.031777679097    -2.000303266949
H      3.891566990238    -2.481611970220    -2.054367226699
H      2.478997565899    -3.553687352934    -0.288736552199
H      1.475415158266    -2.161840470230     1.527872868857
C      1.123682903698     3.280479399467    -0.979977362538
H      1.091687641725     4.353778200116    -0.758764042873
H      2.157540246263     2.966705831439    -1.118451939448
C      0.446650677455     2.448403807033     0.095462153592
H      1.037871338751     2.340991501256     1.000895501478
C     -0.971234283862     2.719095857576     0.465214591094
O     -1.721709637055     3.387471785771    -0.298013673226
O     -1.422789341425     2.318320708319     1.732389981559
C     -2.827289591087     2.468152037288     1.980348555948
H     -3.059713531823     2.099051310059     3.002285790734
H     -3.130282699732     3.537442211707     1.915827446666
H     -3.422311360148     1.867283856642     1.254984954741
Pd     0.728684632973     0.525262182232    -0.623356367292
C     -2.282282040023    -0.172391766573    -0.768423973957
O     -1.332312307905    -0.227168148033     0.143020404390
O     -3.503581098629    -0.415936410970    -0.635798596166
C     -1.758751856546     0.251462803816    -2.214374386343
H     -2.629253787162     0.664430613519    -2.740079899395
C     -1.234348559906    -0.943259346943    -2.981272366361
H     -0.900691346209    -0.623380724034    -3.989680291148
H     -0.373340085779    -1.388128330800    -2.442312712360
H     -2.033666994394    -1.706026138021    -3.089161848329
N     -0.643173364373     1.203103296998    -2.081114194771
C     -0.467762350645     2.328623637291    -2.679425521740
O      0.480285704301     3.232908182915    -2.334234225168
C     -1.296506233646     2.740532338271    -3.826304804267
H     -1.252672281274     1.951424653959    -4.593516044666
H     -2.321732203539     2.905764195294    -3.455764569520
H     -0.901634866866     3.689667875819    -4.233173072029
N      0.731371942910     1.041417567798     3.129999997480
C      1.371097885924     1.739036853387     4.119767062461
C      1.115830779203     1.459619198335     5.448264759789
C      0.210020958570     0.481486192310     5.793927401197
C     -0.430174203316    -0.193651676641     4.789770669748
C     -0.150427118265     0.138334982077     3.442422711960
H      2.093142753110     2.502634082678     3.855755575081
H      1.631833501997     2.012131922989     6.215641099179
H      0.006044888837     0.253836582402     6.836671264494
H     -1.152619870379    -0.959775772752     4.987322362726
O     -0.851048049710    -0.598725247872     2.586510676844
H     -1.035491878197    -0.357938306366     1.599852727638

