# STO-3G

title

0 1
C     -0.136277138260     2.403788782457    -0.667328544289
C      1.174032878866     2.959430294011    -0.624816381281
C      1.790904938281     3.419023376824    -1.796179512022
C      1.120315268143     3.301657191059    -3.040156202432
C     -0.166505219225     2.739755761642    -3.104856297902
C     -0.806218732023     2.314982219655    -1.918646602662
H     -0.720178075122     2.338511622750     0.270880368275
H      1.674287210266     3.063330337893     0.333939639188
H      2.775303179112     3.879278644311    -1.751698970333
H      1.599149320421     3.665698338530    -3.946840714293
H     -0.684642127976     2.668977476373    -4.057889024337
H     -1.838883116255     1.977245193714    -1.943715577210
C      0.158823911185     0.681014289680     2.732658782480
H     -0.482836233021     1.557181082541     2.732309375279
H     -0.349072079722    -0.273127021693     2.608334170858
C      1.506080341929     0.718137743701     2.858387644322
H      2.074349366023    -0.202469965945     2.810872098060
C      2.300367231468     1.942275442003     3.042893083941
O      3.555327317725     1.848871428507     3.104452969719
O      1.661412264556     3.195888717108     3.066016690363
C      2.517663105673     4.336764865568     3.213010229077
H      1.899486607091     5.260333831028     3.217830712845
H      3.079121663349     4.288041922746     4.173404702052
H      3.236876039906     4.403679880411     2.365678876669
Pd    -0.486253390229     0.082105642891    -0.211743944472
C     -2.263856204876    -2.128808537506     0.423947168264
O     -0.942808553317    -1.792369224521     0.475700322169
O     -2.705110082659    -3.226947112330     0.785611406744
C     -3.131371446969    -0.960844203087    -0.137712241447
H     -4.129832502588    -1.080158151751     0.300620505075
C     -3.262637057245    -1.037166166281    -1.643014965049
H     -3.895462910721    -0.199463090654    -2.002534518737
H     -2.262258051391    -0.956710758941    -2.115299866824
H     -3.731806740775    -1.999211820412    -1.938659917168
N     -2.463257289868     0.313455839047     0.184489960320
C     -2.923533744804     1.299814068699     0.978329287980
O     -2.219246572322     2.278366512791     1.380149170587
C     -4.350545369228     1.280057043236     1.380066745648
H     -4.970841951849     1.239271521005     0.468959451245
H     -4.518602991391     0.414538941426     2.041739021182
H     -4.573852587585     2.209827779664     1.936505175753
N      1.490083933712    -0.538922768015    -0.556525577880
C      2.234444131136     0.046202661426    -1.545512054867
C      3.582530105397    -0.225565679760    -1.655298924016
C      4.194439356925    -1.093284688971    -0.779110823760
C      3.421441091921    -1.708816203243     0.168247174945
C      2.042414210606    -1.420035808498     0.237155194143
H      1.761388019719     0.707420062376    -2.255470070278
H      4.158448787300     0.254595336258    -2.428975338410
H      5.258403033345    -1.302303864553    -0.852455335780
H      3.829050089615    -2.417300409769     0.861631570487
O      1.396117490182    -2.104871850224     1.155778751337
H      0.365330674260    -2.107201044076     1.042359640164

