# STO-3G

title

0 1
C      0.140439717752     2.369019230883    -0.842362035808
C      1.434052195408     2.934526686856    -1.025167927341
C      1.820016948390     3.444336841971    -2.273396707873
C      0.928429939906     3.369937267641    -3.371864526816
C     -0.349288799599     2.802843452014    -3.214138563266
C     -0.752534511153     2.327419573971    -1.947652859832
H     -0.259957462125     2.297122633445     0.195013202179
H      2.108914026012     3.014698400101    -0.175404396104
H      2.794189526357     3.912935499548    -2.393965364068
H      1.228073051077     3.772403815549    -4.337324185744
H     -1.037351864862     2.765844264229    -4.055002311473
H     -1.770075540178     1.977288743990    -1.793731856782
C      0.863631464779     0.020338249299     2.753100161861
H     -0.012579901970     0.097526877599     3.391017595796
H      1.108484145715    -0.969911620635     2.385413881303
C      1.614043521723     1.092098325866     2.411119353117
H      2.451465411601     0.966003917186     1.733076416643
C      1.380625880511     2.461323237023     2.896010510275
O      2.117585669981     3.385602543864     2.456990102908
O      0.505750459801     2.679486043356     3.977595299531
C      0.244126461448     4.053040606052     4.293350100908
H     -0.467419356273     4.105232039346     5.144279550143
H      1.180668038862     4.578364409383     4.587922800338
H     -0.217053161321     4.571958966442     3.421875165446
Pd    -0.143274729139     0.064331284235    -0.291097335397
C     -1.822915164370    -2.114502327780     0.668399135403
O     -0.528242998792    -1.847092603627     0.338553775171
O     -2.205860249607    -3.210068049166     1.099828546375
C     -2.747508273982    -0.883422511235     0.432786243983
H     -3.574190695229    -0.984155623060     1.146868552590
C     -3.325830755417    -0.882653966954    -0.965652296488
H     -3.992325606887    -0.004339835869    -1.090959167744
H     -2.507617239490    -0.818898894357    -1.711935912424
H     -3.910923479140    -1.810239135139    -1.139750779841
N     -1.950933894097     0.348127557155     0.584142929490
C     -2.174554921271     1.370877781620     1.430427506789
O     -1.375643347693     2.346512530999     1.592514613183
C     -3.437124271966     1.391593715906     2.206835662446
H     -4.284204108075     1.350327218421     1.502010670942
H     -3.430946454751     0.541232923531     2.908218908703
H     -3.480948453429     2.334897286450     2.783025723157
N      1.694620976312    -0.586360952811    -1.077815959277
C      2.250113805899     0.032984430287    -2.165674860621
C      3.541539682104    -0.263108029597    -2.551163503118
C      4.283837458984    -1.191675673087    -1.857415951541
C      3.692246415504    -1.838142205439    -0.805725319057
C      2.362103772699    -1.524814650383    -0.455122937902
H      1.669588878189     0.739315228441    -2.738888094063
H      3.968609075353     0.242854292285    -3.401408368044
H      5.303676155392    -1.423894172251    -2.152658217675
H      4.200161275995    -2.598978357631    -0.246959112773
O      1.876285333554    -2.255385342174     0.525110289206
H      0.834387156790    -2.235492786102     0.595718460788

