# STO-3G

title

0 1
C     -0.359101307274     2.269457853781    -0.674589745396
C      0.759839928932     3.099097253060    -0.965180484044
C      0.845417325896     3.778785755559    -2.189682354106
C     -0.178656979537     3.622021428843    -3.154916153771
C     -1.290253342702     2.800114787635    -2.887888742929
C     -1.391446894722     2.144580069316    -1.643295806732
H     -0.590048988343     2.065997251292     0.402993088435
H      1.528823990928     3.241704720840    -0.208969101238
H      1.685196342003     4.440146838440    -2.390635400148
H     -0.114670782302     4.156641584186    -4.100484996626
H     -2.083498288381     2.699508523118    -3.624543081753
H     -2.286148740623     1.578447746262    -1.394898429075
C      1.614617621185     0.016380184397     2.561407071525
H      0.977367718867    -0.340627997826     3.367027369851
H      2.110397988986    -0.743450481060     1.967577278951
C      1.781888373925     1.331813208572     2.292980844929
H      2.394546047584     1.628991865567     1.449905987331
C      1.173261256159     2.430802008982     3.059756147266
O      0.642999336913     2.198479633755     4.182002870257
O      1.370161760042     3.746558904363     2.603672910769
C      0.620146950975     4.755559511711     3.292544882206
H      0.830139836695     5.746438558045     2.836767706147
H     -0.473070948289     4.556750704365     3.205041592250
H      0.905143749086     4.797205016234     4.368210111027
Pd    -0.063767649776    -0.041473267050    -0.215691691754
C     -0.988843669370    -2.566229643163     0.913390656766
O      0.105043459246    -2.006999359740     0.325658874347
O     -1.018150409227    -3.731854558725     1.330329915128
C     -2.184903416935    -1.574008920184     0.982495763193
H     -2.766204090748    -1.866752127574     1.865736696639
C     -3.075928074729    -1.695117441596    -0.235106332827
H     -3.930784500345    -0.993983269873    -0.141166827271
H     -2.501575012193    -1.436761191142    -1.148241894382
H     -3.464632210735    -2.731407503652    -0.325316010942
N     -1.668853672641    -0.192759104300     1.019433846018
C     -1.977035599889     0.767311441738     1.908873128677
O     -1.442489548522     1.922546529988     1.917405294595
C     -3.012572665813     0.493830383491     2.933025707145
H     -3.950256544058     0.216273683657     2.424136619210
H     -2.641031387510    -0.301893827739     3.599619118065
H     -3.170858512709     1.413250089739     3.527798975476
N      1.666766697877    -0.247800131546    -1.398216365537
C      1.840540192812     0.506642347130    -2.528303520555
C      3.051925713650     0.502904892047    -3.189100596218
C      4.096401460314    -0.268054987127    -2.732220854531
C      3.886497523800    -1.055488299264    -1.632573758751
C      2.627167891130    -1.042603290077    -0.996447159150
H      1.022376643878     1.092394201759    -2.917958925038
H      3.175745155291     1.112051146989    -4.069396442743
H      5.054168236291    -0.270970755186    -3.245897544464
H      4.644226606925    -1.708863633591    -1.247633689219
O      2.521114474442    -1.888878387762     0.004786522683
H      1.533891404681    -2.096856724073     0.284390676454

