# STO-3G

title

0 1
C      1.289127187653     0.739617011790     2.343188740755
C      2.164797524711     0.182779695672     3.309594582101
C      3.230036741460     0.943360458339     3.820237677633
C      3.440058272635     2.261900578237     3.362985270068
C      2.582095291940     2.825399140867     2.396052718433
C      1.499672890268     2.072893751878     1.899998370710
H      0.274897252640     0.305343057642     2.192386780810
H      2.005479061884    -0.833114138847     3.657389859931
H      3.895691859616     0.514798670840     4.565343996735
H      4.269779135951     2.844300081156     3.756139041724
H      2.744689875648     3.842730007285     2.050572610383
H      0.795951709777     2.514530943800     1.199964603539
C     -0.301647671439    -2.851062481993     2.260540331860
H      0.256299778488    -3.779942263242     2.372667296997
H     -0.602215343324    -2.585017017975     1.249366096946
C     -0.636667733831    -2.049210024277     3.301838037534
H     -1.181920586672    -1.150125226566     3.068576146445
C     -0.295321017277    -2.328890427979     4.721299638274
O      0.314471012643    -3.393662659206     4.993143000143
O     -0.559690767934    -1.424711328460     5.771481265450
C     -1.154019243969    -0.157327544782     5.456200537728
H     -1.268555789789     0.430518537589     6.392418884101
H     -0.505291564359     0.432290321578     4.769557350496
H     -2.168037310707    -0.287134910932     5.016104641697
Pd     0.942365420879    -0.580280827805     0.329160909871
C     -0.257684465431    -1.022109762698    -2.225266597677
O      0.635466001055    -1.595432278325    -1.373586066517
O     -0.536551773918    -1.514420714944    -3.331419926287
C     -0.891652469371     0.297584136994    -1.687986635152
H     -1.921254930325     0.321143616850    -2.067156354944
C     -0.156054032017     1.514889630231    -2.207112794654
H     -0.632979032973     2.437025418148    -1.816692253990
H      0.900546974556     1.487421153362    -1.870708532540
H     -0.185367785075     1.533922427203    -3.317156560628
N     -0.788897592005     0.302703226509    -0.216399912130
C     -1.732356263357     0.634177706364     0.675531632427
O     -1.583856061517     0.529204964611     1.939208282159
C     -3.026304252687     1.162888437723     0.184042530188
H     -2.831985853456     2.051713468972    -0.438945174217
H     -3.538803849778     0.365716944893    -0.379560614405
H     -3.646946474114     1.449422026856     1.053572878096
N      2.714978510505    -1.669260186169     0.490266031656
C      2.622515175098    -3.023709756748     0.295981860776
C      3.770329243282    -3.787462642604     0.210565036318
C      5.012241840689    -3.196609111511     0.300106373375
C      5.072820512899    -1.837460961544     0.467753577952
C      3.874750563641    -1.103033343852     0.550652826367
H      1.652007607958    -3.498029137728     0.220103529373
H      3.688198763111    -4.852323099136     0.065399159869
H      5.918977415759    -3.791632680146     0.230154800838
H      6.003861981309    -1.310847988838     0.530749585499
O      4.045319052044     0.211165279809     0.679930212610
H      3.190868630859     0.695531399254     0.774578718946

