# STO-3G

title

0 1
C      2.320785529170     1.641543562795     2.118333451972
C      2.754134271541     2.312696001191     0.942869501054
C      4.101914095345     2.706448196881     0.799303004382
C      5.011809382291     2.471907027017     1.846828865522
C      4.589901761344     1.821893554807     3.033219803699
C      3.258432177168     1.400547089395     3.161746223527
H      1.236085022168     1.625478689283     2.367491664723
H      2.022361162822     2.569369798896     0.180680099965
H      4.426809433509     3.221755282125    -0.101051878078
H      6.042552215350     2.807840799806     1.754289649078
H      5.293675925116     1.669474250564     3.848246007771
H      2.921104797275     0.925709438758     4.080645375927
C     -0.075616599109    -0.902081907672     3.623859420139
H     -0.402052683014     0.118553852223     3.445802306764
H      0.897560324028    -1.024294624780     4.097750560151
C     -0.804008377124    -1.994857671398     3.291403808892
H     -0.409049742767    -2.983049222246     3.481255955797
C     -2.105184256397    -1.972894376098     2.601319150587
O     -2.592279536257    -0.881466600513     2.193181502064
O     -2.755084536719    -3.195525046177     2.360379653234
C     -3.922708896755    -3.133366344083     1.529938824854
H     -4.340855524112    -4.155465784382     1.407864414002
H     -4.704203238521    -2.488127637559     1.990698267004
H     -3.665663548388    -2.745160361782     0.517868509919
Pd     1.312142740281    -0.197173251184     0.983156153768
C     -0.815684300557    -1.337555721513    -0.640428910484
O      0.237685871531    -1.717888652327     0.134503587239
O     -1.593103735076    -2.142334586827    -1.173517475861
C     -0.913065793921     0.210588241664    -0.777675879168
H     -1.973035643679     0.430478004101    -0.952809010608
C     -0.120036922162     0.713141698631    -1.964385442328
H     -0.231596748867     1.814201870445    -2.044482094069
H      0.953898660778     0.472142993465    -1.827886902853
H     -0.488113331625     0.241395663554    -2.899682474040
N     -0.345353575948     0.838725017555     0.430444617926
C     -0.989188539036     1.659485851734     1.283347378262
O     -0.510411717609     2.038084291756     2.402786250490
C     -2.302225657463     2.222772801452     0.888201574951
H     -2.194530565649     2.723833554502    -0.087400300368
H     -3.035048816651     1.398236026612     0.864395119933
H     -2.616555539595     2.956478865651     1.653224797174
N      2.866000464625    -1.553973107730     1.375810344889
C      4.167124208587    -1.127667724029     1.396176169766
C      5.169680333151    -1.971269613073     1.828995799383
C      4.879055005742    -3.255261080857     2.230722650984
C      3.579827542884    -3.679155760705     2.153683983174
C      2.584872477013    -2.795402418993     1.684179140314
H      4.414136259852    -0.133771797333     1.055580996885
H      6.186935202605    -1.616402014324     1.850176505663
H      5.664067049655    -3.923045830751     2.575619838356
H      3.290757994032    -4.678650033739     2.411582545918
O      1.391093028831    -3.333824203783     1.584936151401
H      0.727824376100    -2.786313172203     1.002147129057

