# STO-3G

title

0 1
C     -0.664802269401    -1.766432552043     1.665713094389
C     -0.292755563691    -3.082857578299     1.280879665342
C     -1.226261902523    -4.139691743674     1.354916587942
C     -2.518071303638    -3.895769848305     1.855391477232
C     -2.897074224008    -2.591603600127     2.260444603559
C     -1.982063083398    -1.534728276046     2.153698808379
H      0.115721895966    -1.013167173792     1.886504447633
H      0.734587221211    -3.278581674641     0.984815248186
H     -0.935701127310    -5.145007447039     1.060535625223
H     -3.227059121581    -4.715854175646     1.948306415965
H     -3.889857940040    -2.416766168741     2.668693910162
H     -2.258483851513    -0.536209001300     2.484937293025
C     -0.631870867509     1.837764927485     1.110366923128
H     -1.691759968120     1.695427044229     1.321551645996
H      0.073450074987     1.214837942150     1.652503488647
C     -0.194095491911     2.762332650527     0.222706169186
H      0.864949184558     2.847056297389     0.017735077363
C     -1.058311154989     3.683048714845    -0.536110724867
O     -2.302314476948     3.703448595453    -0.321495443666
O     -0.452630436955     4.608527471874    -1.404665041537
C     -1.349958792513     5.414904627232    -2.179538382748
H     -0.762190347767     6.092687280541    -2.834822725542
H     -1.991592562465     4.774902703364    -2.827195284687
H     -1.993379415417     6.038648903134    -1.518532499840
Pd     0.035855291546    -0.778327098923    -0.414678391433
C      2.179167068714    -0.047552014718    -2.239639465075
O      0.850382718666     0.171347242385    -2.032546239349
O      2.817910425745     0.454756721524    -3.173595352560
C      2.780889374145    -0.999355752726    -1.161196862841
H      3.841829959583    -0.734917020261    -1.073422086327
C      2.686844907093    -2.449331757747    -1.582625002984
H      3.132909543464    -3.093499798785    -0.796882274823
H      1.623817582764    -2.735302569047    -1.718679428915
H      3.234076047965    -2.607479215566    -2.535822785996
N      2.002582020504    -0.847938772460     0.081742185921
C      2.444822936146    -0.396797208561     1.269437152907
O      1.682050232500    -0.099498865309     2.244457757694
C      3.905454696344    -0.278742221664     1.490744751555
H      4.076527339777     0.007135159424     2.545122926082
H      4.367644682749    -1.260776339339     1.295901941708
H      4.305998560306     0.510867435863     0.832186726312
N     -1.873112637905    -0.555703592131    -1.257722171901
C     -2.863978338707    -1.458045900383    -0.977222285559
C     -4.164953547384    -1.207413644663    -1.361988326978
C     -4.482984856671    -0.052960134417    -2.041102927992
C     -3.469798676780     0.808474901405    -2.362757466023
C     -2.148777636619     0.510336935100    -1.968180432004
H     -2.624460558947    -2.380137526873    -0.471144817411
H     -4.935717635566    -1.920168165999    -1.119950752538
H     -5.507876958815     0.157923914363    -2.334406609154
H     -3.643922439489     1.715771670618    -2.905820270664
O     -1.254231471777     1.378237720444    -2.383564388280
H     -0.271178175665     1.048489544244    -2.316222244786

