# STO-3G

title

0 1
C     -1.459880347750    -1.788179959120    -0.038823398505
C     -0.998534641282    -3.103035701444    -0.329611081911
C     -1.253994981762    -4.160052870098     0.555686169684
C     -1.951906459411    -3.914256070658     1.764292755262
C     -2.401760046542    -2.618311417333     2.076046302450
C     -2.178932043656    -1.561662649918     1.166374620388
H     -1.546451665601    -1.066277281509    -0.876985461948
H     -0.487244877232    -3.291579272903    -1.271430409974
H     -0.934145586472    -5.169204002156     0.306648901398
H     -2.157016331488    -4.737879712944     2.444936137144
H     -2.953774154829    -2.438602981414     2.995112589256
H     -2.608389795176    -0.580438698329     1.350707110086
C      0.798070945662    -0.168779209183    -2.614692057750
H     -0.066710568624    -0.801805879542    -2.789127501240
H      0.574985428195     0.889718230377    -2.515438879188
C      2.071404140927    -0.617917780163    -2.522169633898
H      2.875526723963     0.074800509465    -2.320854574227
C      2.479258749188    -2.031245570081    -2.598374228454
O      1.612067908384    -2.933530276068    -2.756413851252
O      3.836391232874    -2.350358435349    -2.415590647594
C      4.148157345525    -3.748505458890    -2.351796734357
H      5.242140342979    -3.874212742808    -2.204740031518
H      3.623815007647    -4.228957701156    -1.494565071425
H      3.861862391570    -4.261551538330    -3.297876729110
Pd     0.085290524560     0.009322197764     0.340827682274
C      0.593049892508     2.867331216130     0.559431816426
O      1.257479039104     1.686468869830     0.421428255565
O      1.158145943497     3.965359134947     0.645752577424
C     -0.950330694469     2.656358311818     0.592396755878
H     -1.392830192378     3.575280220147     0.188709926464
C     -1.455555768346     2.467620687666     2.006252474796
H     -2.557224336182     2.335550636184     1.991854777251
H     -0.993602101494     1.564689105905     2.455410451146
H     -1.204447666886     3.354927568131     2.624898609489
N     -1.275342535632     1.431989856667    -0.162345513797
C     -2.066713362481     1.328925588240    -1.247273800817
O     -2.176095413313     0.277743224887    -1.953311933833
C     -2.904024297091     2.490779099559    -1.631122989498
H     -3.549811977141     2.190310460087    -2.477099635873
H     -3.533728089575     2.766501426732    -0.768981770021
H     -2.247507094602     3.317041015035    -1.952986505789
N      1.719115578599    -1.156392159478     0.990227083268
C      1.491571784328    -2.338184763035     1.643915211440
C      2.540284301948    -3.183448345997     1.944008067438
C      3.829447935400    -2.847006006756     1.601320519160
C      4.042671698508    -1.640180893620     0.993947874121
C      2.948018704362    -0.793128223941     0.719044647331
H      0.492678290004    -2.599148375147     1.953100136640
H      2.340822945065    -4.114259707628     2.448721988844
H      4.658626947539    -3.512368330365     1.826021014792
H      5.023035668607    -1.307024791769     0.716725086473
O      3.284134821893     0.352669481737     0.173831161199
H      2.534275442679     1.076460462167     0.182286437962

