# STO-3G

title

0 1
C     -1.318211747703    -1.788134780294    -0.004287260830
C     -0.775568460497    -3.087151233935    -0.216600657105
C     -1.016987988770    -4.118497618194     0.701430292509
C     -1.780915822988    -3.860707700803     1.867775206492
C     -2.310893795974    -2.579902849919     2.102833425010
C     -2.103017987768    -1.550671753765     1.157307533851
H     -1.386025393681    -1.097654499077    -0.867502757318
H     -0.215339376982    -3.284947860850    -1.127558655037
H     -0.637076649589    -5.119456366381     0.510653440131
H     -1.974181769193    -4.665470803222     2.573996456510
H     -2.913457791391    -2.392085170111     2.987902439963
H     -2.595626492643    -0.589399847253     1.276852771037
C      1.065031716363    -0.107579514664    -2.444058132944
H      0.105399947248    -0.472070985966    -2.797887558441
H      1.070230044442     0.927287105685    -2.108207623533
C      2.200978517253    -0.842682827560    -2.397041606311
H      3.104226049864    -0.401893255266    -1.998138471574
C      2.323236609554    -2.249504480703    -2.813050584688
O      1.313974796559    -2.877618268763    -3.233693363695
O      3.568329635411    -2.887180235685    -2.667313186021
C      3.613523739389    -4.268853419279    -3.049731094542
H      4.642000247869    -4.659921573147    -2.895243911074
H      2.913696618660    -4.873298112785    -2.429214976553
H      3.352873254107    -4.389941193877    -4.125784017597
Pd     0.097651426685     0.092038075153     0.460064486468
C      0.462064745929     2.970704359455     0.666105644125
O      1.188487530660     1.821247961874     0.563727128327
O      0.970593580713     4.094574806482     0.766018739293
C     -1.070198419691     2.684800786134     0.638261885390
H     -1.541781933945     3.578896678429     0.212360941478
C     -1.622994842836     2.475814875168     2.031108801077
H     -2.715322701965     2.289415872057     1.972031737877
H     -1.136260130753     1.598380729506     2.503856779771
H     -1.441739397572     3.376538079331     2.654735780413
N     -1.302248278407     1.442855348564    -0.121746957884
C     -1.994304458564     1.307097098270    -1.270150589344
O     -1.997198018790     0.253922329560    -1.980597958364
C     -2.851642543598     2.429784869354    -1.720534953882
H     -3.413795264963     2.101342328497    -2.614469092419
H     -3.559455471695     2.673805567622    -0.911018980768
H     -2.210871137947     3.286264469785    -1.990935621091
N      1.762865034024    -0.989025353742     1.158652473422
C      1.579698260158    -2.162634907652     1.839627102150
C      2.658522097661    -2.966918353962     2.144579837843
C      3.932360897186    -2.596258065936     1.778439305126
C      4.099727430741    -1.394812143574     1.144869919321
C      2.974436244916    -0.590534696573     0.866321928285
H      0.591037272975    -2.449883792896     2.160928874594
H      2.495878841772    -3.893581184747     2.669648617839
H      4.785302424326    -3.229686855142     2.006906122739
H      5.067002995889    -1.033823110827     0.856978287663
O      3.266192209173     0.555676028079     0.292791933398
H      2.496168414451     1.253695943871     0.306304817999

