# STO-3G

title

0 1
C     -0.326225267341     2.515261739080    -1.613013348971
C      0.812556207872     3.176247623373    -2.153661663546
C      1.039560923320     3.186203586035    -3.537251676842
C      0.143577118580     2.511575105709    -4.404212495506
C     -0.977271828406     1.837658978482    -3.886551875451
C     -1.225544721845     1.858463822837    -2.496485212261
H     -0.681325061140     2.788881021852    -0.598069540367
H      1.483947822797     3.713314475713    -1.486957895968
H      1.889555457426     3.725760948476    -3.948704041699
H      0.315914571387     2.531333343496    -5.478364020553
H     -1.671229603866     1.336696439373    -4.556837025865
H     -2.139769579898     1.427520468933    -2.095824784806
C      1.876970886451     2.461734120967     1.786077542853
H      2.704635852679     1.822299034697     2.081438279797
H      2.053004693795     3.113846844770     0.933222124104
C      0.665151669684     2.434716712022     2.388051417057
H     -0.141477346643     3.048239623949     2.014685544567
C      0.312545962151     1.552381599065     3.512401921197
O     -0.890717837556     1.499195742830     3.889205087941
O      1.301949642400     0.751054520774     4.110222335212
C      0.848076566504    -0.164901150173     5.115974880883
H      1.714310875135    -0.743194385060     5.502753095413
H      0.381440018051     0.379595375875     5.967287909251
H      0.116455324205    -0.888849753612     4.691351802054
Pd    -0.025135044689     0.608493594655    -0.198889641573
C     -0.970854203939    -1.288597425736     1.789029619200
O      0.186012243430    -0.816028589059     1.249056453423
O     -1.007433651048    -2.185652572184     2.643051545803
C     -2.225525464433    -0.577225920957     1.200001006088
H     -2.967870459317    -0.567286326325     2.007661817760
C     -2.800686952864    -1.348460557295     0.031686499058
H     -3.705916597318    -0.829649878427    -0.345606354315
H     -2.053798914247    -1.403686909114    -0.786312668727
H     -3.076889770763    -2.376108239300     0.348965504414
N     -1.839048783075     0.758863709912     0.703989390379
C     -2.397146135205     1.934829276340     1.047519841533
O     -1.926503587301     3.070036865253     0.710700590217
C     -3.651681187572     1.932297231697     1.837094751525
H     -4.403343232532     1.322979671435     1.309526251294
H     -3.422037388365     1.543716111813     2.844505399658
H     -4.013314778977     2.973017322359     1.930410590298
N      1.877474869045     0.108785525328    -0.932259925935
C      2.154578376034     0.250181690422    -2.265803523437
C      3.440491214851     0.070955275824    -2.733010137743
C      4.457699922416    -0.266701673490    -1.869537833165
C      4.150094313267    -0.453296563518    -0.548975670325
C      2.819033185229    -0.283264818193    -0.112102472342
H      1.361289927101     0.484033157915    -2.958925017224
H      3.643996671266     0.196948587769    -3.783662599993
H      5.473169136842    -0.406154619905    -2.230806522662
H      4.885593469687    -0.755684639600     0.169966289850
O      2.634170643272    -0.557462939397     1.159372801717
H      1.643798578954    -0.696389920635     1.428264955010

