# STO-3G

title

0 1
C     -0.158644301441     2.435300573536    -0.926367308742
C      1.019603932407     3.092181322876    -1.380704900467
C      1.104943422273     3.571808011265    -2.695238717248
C      0.021730596693     3.377258344040    -3.588821746621
C     -1.143321513293     2.713466552247    -3.163601841118
C     -1.243867124230     2.264401115318    -1.828608066555
H     -0.356911866954     2.372065765934     0.165413488314
H      1.838798359430     3.252662100904    -0.683467208598
H      1.991686479574     4.107620456639    -3.026340855007
H      0.087198896379     3.759548061205    -4.605477797664
H     -1.977574566961     2.581688190344    -3.848059049760
H     -2.174081138877     1.838058792689    -1.460995804780
C      2.314480676412     1.386967917432     1.790991859027
H      2.573044432160     2.442983081833     1.800280134612
H      2.829878793164     0.764556838127     1.065644353062
C      1.398627708796     0.847631788209     2.627002719901
H      1.154692013286    -0.204509200930     2.553640369434
C      0.648000843625     1.600345899853     3.643098071737
O     -0.243597790941     1.000067739969     4.305102533962
O      0.981242615538     2.941297708854     3.912166020338
C      0.088605988005     3.638956825263     4.790401895348
H      0.441513765659     4.684535242119     4.917442193791
H     -0.938097791749     3.669469903178     4.358908802645
H      0.059281507704     3.155285921274     5.792867127491
Pd    -0.019080694501     0.149765696165    -0.306505248709
C     -0.958296288648    -2.203545582294     1.119987739951
O      0.175917443610    -1.686316299558     0.567763548495
O     -1.006453870605    -3.315590591963     1.661823978642
C     -2.169135220230    -1.234472816120     0.973946886215
H     -2.812360585562    -1.427387076164     1.841494236957
C     -2.963209864817    -1.524817349921    -0.281335433422
H     -3.830201426303    -0.834816937785    -0.339428489564
H     -2.324483817141    -1.371092746302    -1.174881449024
H     -3.332820781445    -2.571871822339    -0.268153323731
N     -1.670303630859     0.151602758697     0.874752733180
C     -2.008931100338     1.190543591590     1.662842419885
O     -1.428968112252     2.321971540180     1.635156377410
C     -3.141526127375     1.034135999239     2.606498243638
H     -4.031809863178     0.707615404339     2.044745338883
H     -2.841089969495     0.313102304895     3.386270726274
H     -3.339080772302     2.010785642627     3.085550577502
N      1.698292925055    -0.247136653468    -1.450495167954
C      1.830456607489     0.284962769282    -2.705403717855
C      3.016355656611     0.147422013774    -3.397463908740
C      4.075222223144    -0.535626547910    -2.842978977683
C      3.906027287532    -1.099238467731    -1.606780917980
C      2.670842010414    -0.957513682042    -0.940251679826
H      0.999367671986     0.801794419449    -3.162085021768
H      3.109151889752     0.581719955760    -4.379342531710
H      5.012982864327    -0.643594901832    -3.381649375378
H      4.676625438820    -1.674797047118    -1.133017245374
O      2.602994832350    -1.589207638479     0.212557348832
H      1.632538343425    -1.746873638384     0.550757154315

