# STO-3G

title

0 1
C      1.239032579313    -0.359182288668     1.596818000589
C      0.661750376191     0.602468913314     2.471755881065
C      1.421723897943     1.725854782818     2.885798279593
C      2.741821525235     1.880769583696     2.436622166945
C      3.319505372685     0.923939129015     1.562812745547
C      2.577651610338    -0.188067101702     1.149054918729
H      0.720525004275    -1.289660569332     1.391216387910
H     -0.327888995621     0.418263350583     2.877992382062
H      0.987435021494     2.445619184287     3.574719803249
H      3.334279571266     2.730847251942     2.767400304279
H      4.344177877728     1.050253201273     1.221681913504
H      3.017286689550    -0.932341406190     0.490270810483
C      0.265546920532    -2.725343565231    -0.717974390611
H      0.578215443173    -3.117684962195     0.248395756308
H     -0.749270663266    -2.343628687246    -0.763403611824
C      1.074691910671    -2.697222096995    -1.802004460331
H      0.702683122489    -2.294934050893    -2.731527868212
C      2.477798253809    -3.141654187196    -1.822324333703
O      3.040809616395    -3.500883591054    -0.751446332987
O      3.168748818649    -3.151637690635    -3.047228928513
C      4.541475399197    -3.563090476822    -2.989962451902
H      4.978026802138    -3.528471690158    -4.011128198087
H      5.130704480378    -2.880850423727    -2.336213014276
H      4.626096842075    -4.606249621529    -2.609470100736
Pd    -0.409943405039     0.515408358692     0.065140248856
C     -3.030624131934    -0.280048109591     0.879785692446
O     -1.739961694320    -0.618557521942     1.110939388442
O     -4.005485033692    -0.756238864115     1.488335182863
C     -3.132317504485     0.834586553196    -0.226584862598
H     -2.879231611908     1.783487625229     0.267002081158
C     -4.513395951196     1.004196837583    -0.828635225274
H     -4.478920037347     1.732691244994    -1.663237265745
H     -4.927371830566     0.032681920156    -1.156342836339
H     -5.200153210759     1.404229879902    -0.053299747478
N     -2.035639129519     0.579915730113    -1.195925635852
C     -1.913112585670    -0.057688730484    -2.348540462389
O     -0.784187360393    -0.416372895931    -2.860000169422
C     -3.094368672797    -0.441303545418    -3.145557095688
H     -3.680158880816    -1.174837803751    -2.570214743294
H     -3.660648595962     0.466809573821    -3.400587080090
H     -2.757660387319    -0.921592220391    -4.083932247240
N      0.894263175680     1.784230463570    -0.884428895695
C      1.107598095564     2.984706642923    -0.263887958704
C      2.146047712914     3.798248725688    -0.667857014416
C      2.978332209268     3.410704325500    -1.694519783858
C      2.732610317749     2.215626710241    -2.316454726292
C      1.648411602631     1.415813425083    -1.892224301918
H      0.466824549040     3.289163657864     0.554994931869
H      2.312800283865     4.735489121766    -0.163962300857
H      3.804159949831     4.042437000579    -2.010234583497
H      3.330897830243     1.862250547718    -3.131929623763
O      1.473773699920     0.315568033448    -2.563983925141
H      0.422746501108    -0.077572712690    -2.587293652586

