# STO-3G

title

0 1
C     -0.146338112279     2.362323230859    -1.083060740728
C      1.015965405164     3.085087489709    -1.472262866696
C      1.149836791351     3.567040343415    -2.782971404139
C      0.131514881182     3.312965814365    -3.734086405304
C     -1.019481534941     2.587735646909    -3.371168399484
C     -1.168209161604     2.133285924287    -2.044249028644
H     -0.411011872221     2.324252604252     0.001721228163
H      1.783118858541     3.295887518438    -0.730615049964
H      2.023142503607     4.150699512174    -3.065412115313
H      0.232786744894     3.697004928571    -4.747169965422
H     -1.805714104248     2.411256169278    -4.100962564149
H     -2.090618673597     1.650891351432    -1.729654147064
C      1.745725924939     0.951100574048     2.107141047328
H      1.165467153100     0.173099324700     2.597108926921
H      2.478042972000     0.603129245125     1.385115559069
C      1.606157655017     2.267958430702     2.382795111235
H      2.209961885108     2.995777560767     1.854323513242
C      0.684327143586     2.826587832572     3.384024829407
O      0.753956289725     4.058324123077     3.644286416195
O     -0.101231703267     1.959312424836     4.172429976294
C     -0.925412595388     2.594194687734     5.159463769930
H     -1.503593102180     1.822379226604     5.710180687650
H     -0.301372016650     3.151285960113     5.894766779655
H     -1.643177986968     3.297123277833     4.678463589537
Pd     0.113701277234     0.138338241473    -0.318679571334
C     -0.773265268968    -2.195980219390     1.178548120872
O      0.338825221901    -1.682829242303     0.583443303675
O     -0.787845553082    -3.275511519461     1.785071872661
C     -2.009829963512    -1.269462542465     0.995137590355
H     -2.648623555440    -1.447323096375     1.869043336980
C     -2.793167372743    -1.629193110888    -0.249010579130
H     -3.679649282191    -0.967331189618    -0.334132903734
H     -2.157349806027    -1.490449048653    -1.147281507162
H     -3.132279755861    -2.685345017682    -0.197494430299
N     -1.550947765044     0.125077906480     0.844165202624
C     -1.956360023577     1.194658736767     1.552756593040
O     -1.453379473433     2.357458917259     1.439031889074
C     -3.073256834744     1.034444917850     2.514479046345
H     -3.947499878878     0.630002947970     1.978277657722
H     -2.732566460051     0.375417491406     3.330254258463
H     -3.323043806775     2.027204811286     2.932363524049
N      1.869734554717    -0.230422557114    -1.420073192225
C      2.021330663829     0.293666255996    -2.676546194771
C      3.226555982463     0.178108816042    -3.338357834021
C      4.287357376128    -0.474200171714    -2.752294057814
C      4.100521752310    -1.033310025451    -1.516838203102
C      2.846798634326    -0.914839822009    -0.880876145157
H      1.190351308296     0.784015609236    -3.160773009964
H      3.333162172435     0.606806095846    -4.321324626125
H      5.240559766769    -0.563441179784    -3.266747183819
H      4.872909995002    -1.586597831140    -1.020168560046
O      2.765974867045    -1.544752480428     0.271154493921
H      1.790382206744    -1.713659039222     0.594966653561

