# STO-3G

title

0 1
C     -1.189448000257    -1.848581032137     1.230273922864
C     -0.271532416901    -1.709300073783     2.306254100834
C     -0.523117967825    -0.765609729967     3.323192295711
C     -1.678661939861     0.029046444658     3.274908015300
C     -2.610519709829    -0.121446644693     2.222015689543
C     -2.375558684828    -1.060384298717     1.211239862056
H     -1.105369059778    -2.671423111836     0.529339064443
H      0.599802892790    -2.354298789538     2.380070429805
H      0.183560968870    -0.655507859386     4.141796092340
H     -1.861794678709     0.765175193911     4.053055830760
H     -3.505156230464     0.494873622429     2.198490374878
H     -3.097810656901    -1.203256043920     0.411164123139
C      3.119404691718    -1.051935803457     0.558211399164
H      3.159622039146    -1.892722603910     1.248897261807
H      3.253351511798    -1.245058531286    -0.502616630456
C      2.917577615271     0.223509535875     0.971159886644
H      2.896686287764     1.016136594015     0.238176984872
C      2.689497354616     0.651613748995     2.359590764122
O      2.673574229944    -0.203866972688     3.287824322830
O      2.592270152424     2.026655823303     2.630649153517
C      2.138153281054     2.371577687646     3.945654374252
H      2.084860046103     3.477728426325     4.035707134617
H      1.117524181968     1.963407098699     4.125598502492
H      2.838667487976     1.989578285032     4.722183178446
Pd     0.256420599550    -0.540473789278    -0.224393033367
C     -0.387069929203     2.232126556583     0.089137657712
O     -0.023624792281     1.148599353558     0.812012927577
O     -0.664557499773     3.334954645422     0.600119956551
C     -0.436022550951     1.974178421380    -1.452331437059
H     -0.202974763961     2.926212380200    -1.946607376452
C     -1.822526970872     1.557560712515    -1.893644749660
H     -1.841228618525     1.420493869880    -2.995230759954
H     -2.106669616010     0.602284246018    -1.407033659344
H     -2.561809339181     2.339026470165    -1.617943013309
N      0.493436987665     0.863473424615    -1.791662355764
C      1.788061528097     1.035237224273    -2.242766002994
O      2.634527190923     0.110049907998    -2.258254288766
C      2.183373586902     2.352300035122    -2.797232947620
H      1.501745138325     2.601604569461    -3.628229629814
H      2.151638141531     3.102075536132    -1.988655708246
H      3.218121329948     2.277344229137    -3.181742117346
N      0.564225212240    -2.241588340459    -1.380961406088
C      1.110309839413    -3.380960888848    -0.850933619579
C      1.260083927211    -4.507390072391    -1.632711926642
C      0.882426348313    -4.495527007387    -2.957510072797
C      0.365962311548    -3.337645760584    -3.474995213081
C      0.244811039559    -2.200959009260    -2.648651153691
H      1.394881167852    -3.409829092255     0.193397276193
H      1.679329612961    -5.401948015323    -1.201495547768
H      1.002036970505    -5.378960350876    -3.579158156711
H      0.081372230249    -3.250024788932    -4.504209681052
O     -0.199506250202    -1.122252909140    -3.246571692680
H      0.000281225190    -0.230874346657    -2.676457086511

