# STO-3G

title

0 1
C     -0.313714893121     2.285216992251    -0.495491154848
C      0.829347391151     3.082947364645    -0.783075649180
C      0.926552299413     3.778380035199    -1.997108925177
C     -0.108025241015     3.665722639959    -2.958490886095
C     -1.239339864868     2.870593046182    -2.697863638523
C     -1.353965748488     2.201452497762    -1.460573678494
H     -0.539326907072     2.040577717923     0.567225863532
H      1.610669581587     3.184185748840    -0.032781947170
H      1.784994244879     4.416266394375    -2.194701861910
H     -0.034211056316     4.212574610783    -3.896274203084
H     -2.038825326719     2.802109589746    -3.431383020068
H     -2.264556329172     1.661791042024    -1.212095138409
C      1.940029696394     0.597788502895     2.032648332400
H      2.452525970903     1.280698017185     1.357330812254
H      2.108204513440    -0.457683950398     1.846872747039
C      1.167301494830     1.009434517590     3.064467923066
H      0.677789851915     0.276691360193     3.691925833729
C      0.901097769193     2.412099860393     3.417079469393
O      0.324787330768     2.663542502915     4.510396396971
O      1.444100906111     3.442708444432     2.624756138896
C      1.016703371850     4.769662800762     2.958609471476
H      1.485092795306     5.494458168028     2.259431578416
H     -0.089754585223     4.859293940764     2.862746877097
H      1.322394065446     5.035622741406     3.995846603759
Pd    -0.080010821552    -0.067755358465    -0.174071964357
C     -1.074663645390    -2.622577009697     0.805944889040
O      0.071345842668    -2.035598993610     0.361351486997
O     -1.139477520163    -3.801343020627     1.178215845685
C     -2.276605449346    -1.633229495435     0.779637579307
H     -2.957441255154    -1.963123841370     1.573945913840
C     -3.017781976152    -1.694543330375    -0.538507344369
H     -3.877879757636    -0.993938690760    -0.513352006920
H     -2.340853720958    -1.398627168987    -1.365865521346
H     -3.393108858492    -2.723699483861    -0.720309772499
N     -1.766245735526    -0.258610935129     0.939440107629
C     -2.126497744769     0.642081588838     1.871379620840
O     -1.551174309377     1.764095172741     2.032636883646
C     -3.274736846509     0.335640105171     2.757363194093
H     -4.158665848366     0.129799373205     2.131300681620
H     -3.004065287914    -0.518773477854     3.399073960746
H     -3.470975382174     1.217110286464     3.396950120237
N      1.677021965097    -0.266385118200    -1.316076744172
C      1.874730197188     0.518065240417    -2.421246871037
C      3.092006857397     0.511958099987    -3.070802611111
C      4.118269982305    -0.290701356786    -2.627222734823
C      3.884334813094    -1.105188575576    -1.552286951118
C      2.619895407047    -1.087758981265    -0.926660766165
H      1.069745247107     1.128964036754    -2.800092754689
H      3.235115630345     1.144080425111    -3.931771446083
H      5.080691698082    -0.295957686922    -3.132145861405
H      4.627335967665    -1.782036097860    -1.179178099066
O      2.492040096303    -1.957521510720     0.050999962447
H      1.503526815768    -2.149162965469     0.328595798385

