# STO-3G

title

0 1
C      2.105793523284     2.095098295771    -0.565370578989
C      3.136636654340     2.677185029362     0.205513716663
C      3.381384778582     4.063632866145     0.126643064730
C      2.598848018708     4.878239670469    -0.715421509535
C      1.567816682006     4.298364356138    -1.478748534161
C      1.322465634350     2.910263316348    -1.410378950119
H     -0.919898162285    -0.450625021169     3.035850015702
H      3.730387054256     2.061999116508     0.876910725440
H      4.178903555365     4.502824861293     0.723112622284
H      2.788564714811     5.947774337940    -0.774349811127
H      0.952646181067     4.918842143378    -2.128142957405
H      0.526265416381     2.481258937696    -2.013845808985
C     -1.533006068019     1.423035135692     0.222515424495
H     -1.360010011067     2.493542370338     0.308310482032
H     -0.859930381010     0.890114233202    -0.442128376967
C     -2.497679008545     0.748547487105     0.889620217379
H     -2.580497374262    -0.319500837081     0.739755719466
C     -3.458868037468     1.358989325558     1.820062825619
O     -4.338316138409     0.632501675224     2.354582230771
O     -3.338020854455     2.722855007061     2.151710858965
C     -4.297557861265     3.225030809835     3.092271030833
H     -4.106992284090     4.304689607402     3.272717134996
H     -5.333024137620     3.115434663554     2.697011338988
H     -4.215273190925     2.688994792255     4.065093988430
Pd     1.842215811305     0.131149019507    -0.360198211006
C      0.350138445616    -1.986304366213     0.640641150149
O     -0.781380522573    -1.723622934654     0.051385991186
O      1.481827306321    -2.095364674767     0.038760052790
C      0.347430405255    -1.990382369083     2.195670784539
H      1.364492986877    -2.240071653665     2.515116936334
C     -0.634271675745    -2.973324167879     2.793414849053
H     -0.570280756010    -2.934569153891     3.900512304228
H     -1.665743813718    -2.702503277612     2.484127079350
H     -0.403775515011    -4.002225918617     2.449108529258
N      0.014917503497    -0.639496152329     2.692282971233
C      0.838604170233     0.400920291944     2.494488502747
O      1.898123632722     0.360624980685     1.795531763814
C      0.484841329428     1.663269242398     3.169191456338
H      1.234404364550     2.432700620963     2.912147038982
H     -0.515562234352     1.973302551860     2.825213702175
H      0.474762108079     1.477501700852     4.257061964206
N      1.561007340258    -0.055643320513    -2.362739881251
C      2.591796088121     0.348608851007    -3.169325731718
C      2.452099567525     0.316336528344    -4.539447541712
C      1.282764313519    -0.127118356028    -5.112143059589
C      0.270194044210    -0.537615495535    -4.287585621220
C      0.441087265064    -0.505177061288    -2.884346264948
H      3.515230858840     0.705894430627    -2.728129538239
H      3.267107341911     0.644039626134    -5.163835852877
H      1.166470091370    -0.153292949913    -6.192404078085
H     -0.661734290260    -0.899792693495    -4.674624985131
O     -0.600101325113    -0.924407240687    -2.225427917131
H     -0.648761792156    -1.297016293492    -1.168489555398

