# STO-3G

title

0 1
C      1.787033298696     2.356610309593    -0.878659652460
C      2.635307943434     3.273029359795    -0.218012839416
C      2.770241100216     4.587551966506    -0.709706821491
C      2.059395083508     4.998744454457    -1.854356239603
C      1.209923539020     4.086467060452    -2.507973223790
C      1.076440125472     2.766011292676    -2.028041771997
H     -0.569058375380     0.680382330302     1.854741735830
H      3.168282856026     2.976637119607     0.681032665240
H      3.423865834466     5.287982246682    -0.193176848047
H      2.163086161651     6.014997087243    -2.228095137387
H      0.650070189265     4.394575984606    -3.389108720462
H      0.422657075943     2.074461981324    -2.553915273699
C     -1.799587935316     1.005509292533    -0.236761805220
H     -2.568641320282     0.240019728964    -0.177560083727
H     -1.013004150485     0.812162195332    -0.959542159515
C     -1.763933665934     2.115920934383     0.538660381948
H     -0.949295055456     2.819652830255     0.425041808091
C     -2.770862525336     2.460062822148     1.555269491503
O     -2.668638431513     3.556035134951     2.169247956479
O     -3.851840267432     1.588213690786     1.793837038480
C     -4.762965051968     1.989890263891     2.825650029097
H     -5.565449168715     1.228101328726     2.924913344972
H     -4.237437494398     2.073585891878     3.803941012514
H     -5.237539693180     2.965839873165     2.575583665843
Pd     1.643926079055     0.522999839083    -0.106547245403
C      0.022435029140    -1.653932591270     1.243624121184
O     -0.868973864761    -1.902607740336     0.340491962453
O      1.278645142215    -1.466947755024     1.005513909548
C     -0.446166728640    -1.231509310973     2.685060832747
H      0.133232756315    -1.766362762753     3.442608790406
C     -1.922682158696    -1.385268725931     2.957597092908
H     -2.153142562066    -0.993461523552     3.969209328299
H     -2.506021179973    -0.802884902810     2.214621022479
H     -2.212913912421    -2.453693717562     2.896019352140
N     -0.114639252049     0.215708825510     2.654029355040
C      1.168066908890     0.639940430133     2.805498866786
O      1.780597522589     1.309209424733     1.916031502353
C      1.846565389641     0.367554829391     4.084053433918
H      2.785744743884     0.948111447800     4.114229076937
H      1.172280661046     0.694696258960     4.894201508469
H      2.069055873551    -0.708968079398     4.155722115831
N      1.740207090404    -0.286354691418    -1.976357724327
C      2.868611226424     0.046838705098    -2.680193054441
C      3.026635464510    -0.379436176465    -3.980666103198
C      2.058358889557    -1.144128130604    -4.587242468331
C      0.947011401058    -1.478497820222    -3.862071823083
C      0.815777429215    -1.041668396654    -2.523262365798
H      3.635896012371     0.655804665465    -2.215993667138
H      3.914004856819    -0.101754017214    -4.525642675667
H      2.174449971840    -1.477813469243    -5.615021930128
H      0.161634676727    -2.078261053090    -4.277560876193
O     -0.288285578654    -1.437754480024    -1.957166447430
H     -0.495543129014    -1.643627360996    -0.883283530638

