# STO-3G

title

0 1
C      1.931790930437     2.473387967591    -0.873314263629
C      3.000764457997     3.178200269080    -0.283698903861
C      3.309815393076     4.479174019497    -0.730251051594
C      2.554305067750     5.080947046305    -1.756170154142
C      1.483449631951     4.375890927308    -2.336985191812
C      1.172655281581     3.068698936738    -1.903746043411
H     -0.540861811370     0.479610850655     1.627092651228
H      3.569682585948     2.734095030265     0.528310984163
H      4.133831025036     5.021760692451    -0.270852349103
H      2.793663688791     6.086870546264    -2.093785736640
H      0.888513965229     4.835272546826    -3.124260879363
H      0.348158933028     2.533744844133    -2.370484280062
C     -1.875434408134     0.775936663617    -0.406680221533
H     -2.606849413028    -0.025254191316    -0.331075146444
H     -1.096331824362     0.620835645178    -1.146267628022
C     -1.878218063196     1.884671094877     0.371328872585
H     -1.100033291240     2.627108542456     0.247510108415
C     -2.867964178231     2.169813061430     1.422474268932
O     -2.798596989898     3.263384509332     2.045125611035
O     -3.908904963625     1.253365346142     1.671231127565
C     -4.805209470810     1.599266176428     2.735802915366
H     -5.574980145063     0.805146584836     2.841617827529
H     -4.255940954678     1.684310594932     3.700844629941
H     -5.323896383932     2.560664117080     2.518996230590
Pd     1.474860630995     0.661628519742    -0.197496758256
C      0.017975916910    -2.040846259957     1.665096860684
O      0.392734717425    -1.314695571098     0.597563418203
O     -0.024789172284    -3.283157148439     1.735187709103
C     -0.430073123860    -1.151099084168     2.891322831229
H      0.117146539509    -1.488757756093     3.777167586640
C     -1.910565475752    -1.265528656124     3.170200955976
H     -2.180279464477    -0.601382138050     4.016854366054
H     -2.485070200612    -0.948211529109     2.275866239840
H     -2.173697336129    -2.313223459201     3.424038699441
N     -0.136736503709     0.245894683653     2.542160207707
C      1.052845118753     0.844260715442     2.716260214816
O      1.640968490310     1.476628422025     1.777181574312
C      1.679172754078     0.810608103763     4.048375107356
H      2.545217463490     1.496526213199     4.047464417386
H      0.926166910441     1.155532126102     4.778021990263
H      2.012364014090    -0.216201508596     4.269380037036
N      1.635071102724    -0.154459369078    -2.100316689998
C      2.582470203270     0.330987781351    -2.967316192769
C      2.626145688868    -0.115642048028    -4.271392997665
C      1.731528517529    -1.059141747245    -4.720318725760
C      0.817674585138    -1.558482826802    -3.833101605854
C      0.809864963985    -1.096478485178    -2.499295002978
H      3.303724723286     1.067877939949    -2.635804359456
H      3.368420918695     0.284269345091    -4.943030493865
H      1.760621022305    -1.410852900588    -5.748308800640
H      0.112230594946    -2.316567097593    -4.111009071248
O     -0.072220688179    -1.680849825682    -1.732678676789
H      0.095684324850    -1.604949944015    -0.650260958715

