# STO-3G

title

0 1
C     -0.575386009747    -1.814723422667    -1.860477246845
C      0.415154180063    -1.778009900785    -2.863204790297
C      0.197124456586    -2.452652541949    -4.081412752601
C     -1.003872232187    -3.158787645628    -4.296070790539
C     -1.990433322047    -3.194526960996    -3.290038425901
C     -1.775950242350    -2.522234711495    -2.070459826746
H     -1.360290678584    -1.553486118479     1.529161884273
H      1.339371243820    -1.233523896399    -2.687457089128
H      0.959574571551    -2.428100580855    -4.856681780057
H     -1.168014908428    -3.679525568815    -5.237065907676
H     -2.914607072214    -3.744947741682    -3.451837102552
H     -2.524114661105    -2.551271871395    -1.282227904183
C      0.779172417518     2.479860713755     0.001592071942
H      0.300578797674     3.327429678023     0.481909279303
H      1.837597779274     2.338673092683     0.192861321633
C      0.192996575152     1.757446238447    -1.035794014885
H      0.807960072578     1.025950883671    -1.540723641028
C     -1.115649064717     2.040062508811    -1.646163303803
O     -1.709467118001     3.122964321434    -1.394098370832
O     -1.697129250928     1.050549119822    -2.452544846930
C     -3.048536516982     1.289554827615    -2.866277458337
H     -3.397272043057     0.435003694142    -3.486022931131
H     -3.722167179912     1.374681166962    -1.983149663896
H     -3.118113780273     2.216842604890    -3.478797080593
Pd     0.107113072837     0.519075667671     0.941445643270
C      1.008492331773    -1.624585504729     2.697105805319
O     -0.126283876505    -1.143263173126     2.108639767115
O      1.038484196617    -2.638829728775     3.403301106900
C      2.235041412361    -0.722308980133     2.375684640019
H      3.118326860267    -1.366871244818     2.455780605109
C      2.378180115991     0.401423550253     3.379226332013
H      3.260701107270     1.022085160353     3.120674448866
H      1.470986435240     1.039342007977     3.361604343212
H      2.511738601602    -0.013435767990     4.400623047926
N      2.039326159493    -0.109509608521     1.045982402567
C      2.842178758393    -0.237463582017    -0.031023336179
O      2.561040360462     0.203304132714    -1.186247275797
C      4.160949923984    -0.894976569599     0.138579226835
H      4.709412047408    -0.834177066898    -0.819597309636
H      4.724173606873    -0.354650232545     0.917757650266
H      4.002726073104    -1.956456541050     0.397111478232
N     -1.973422959838     0.843832942828     1.098798188262
C     -2.536074579472     2.090811845972     1.193864234500
C     -3.905580260840     2.245885455828     1.120468037481
C     -4.727769237511     1.153124687494     0.969172397367
C     -4.153464931857    -0.087297491482     0.925092151262
C     -2.751409533701    -0.212078251428     1.042586862349
H     -1.904891572311     2.963453080835     1.300239726455
H     -4.327664354620     3.236245245396     1.167726608335
H     -5.806275621022     1.270734078745     0.908268226104
H     -4.733933342263    -0.985858828687     0.868082515599
O     -2.317952987397    -1.449587597230     1.099405775728
H     -0.418568196245    -1.292753516821    -0.919914323623

