# STO-3G

title

0 1
C     -0.995916775700    -1.638544153329    -1.979396081095
C     -0.203983138856    -1.313151938534    -3.097958787608
C      0.769391057464    -2.218944397638    -3.562434024080
C      0.948119699184    -3.454940112128    -2.910823973271
C      0.146847460210    -3.787846811017    -1.799554101571
C     -0.826682869775    -2.881598705944    -1.336503150861
H     -1.776474932904    -1.393158893413     1.184691556507
H     -0.343522440330    -0.361775973320    -3.606883494716
H      1.386501938910    -1.958578754012    -4.418728928717
H      1.700694028249    -4.154437684715    -3.267959701434
H      0.277950403583    -4.742886565539    -1.296464753821
H     -1.451712403152    -3.144834282256    -0.487372646071
C      0.682127577957     2.499774895638    -0.052608367281
H      0.309656911736     3.333889378502     0.532700723738
H      1.741285451723     2.276208298973    -0.001192312598
C     -0.046553284450     1.901049507391    -1.080194285402
H      0.474679107593     1.190082097349    -1.703407639416
C     -1.379037521480     2.321276050836    -1.540709957151
O     -1.848370120997     3.435287025031    -1.184843638043
O     -2.120444581811     1.430351636482    -2.338659593121
C     -3.458741118846     1.843143907931    -2.650808493300
H     -3.951231240233     1.068777124293    -3.277833474727
H     -4.059943192032     1.971472064385    -1.721147518903
H     -3.455670252935     2.800260144790    -3.220961933489
Pd    -0.081901245398     0.512836522721     0.755816045911
C      0.573795147522    -2.061963106249     1.968595015389
O     -0.490766920192    -1.250005254295     1.710259666227
O      0.461428245406    -3.215566582504     2.403098410807
C      1.917170632929    -1.349191116925     1.674833933123
H      2.633951985807    -2.152287830548     1.467132334947
C      2.408205792638    -0.575554745319     2.880651705419
H      3.381133585347    -0.096753131290     2.646993087430
H      1.672757932525     0.213295676297     3.140564035823
H      2.536141051389    -1.257209968821     3.747809298819
N      1.741824902451    -0.383818572449     0.566024347670
C      2.555969340017    -0.255724311374    -0.507547767065
O      2.408545680920     0.614518919071    -1.415422697218
C      3.707163556193    -1.182309865760    -0.649128658877
H      4.262939864856    -0.911468343222    -1.565342784280
H      4.365463175327    -1.065458747789     0.226979266246
H      3.319002349530    -2.210834753791    -0.754576644545
N     -2.086139803509     1.080191991425     1.146151591010
C     -2.460083830811     2.359819546317     1.468499056138
C     -3.796280636072     2.700657480479     1.535427583155
C     -4.772931438916     1.761478101064     1.297118513614
C     -4.384472636212     0.479372639208     1.020975620229
C     -3.009380757825     0.156510289306     1.002862161011
H     -1.708238569523     3.116511487931     1.647357213253
H     -4.070340117917     3.717434000136     1.763837347166
H     -5.825492772751     2.026416224660     1.348803168548
H     -5.088889980804    -0.317005641117     0.889689419072
O     -2.747944744468    -1.118850492791     0.844558815258
H     -1.750876814967    -0.942401548979    -1.616808641287

