# STO-3G

title

0 1
C      1.224837612760    -3.098096301599     2.563106249363
C      1.202680619657    -3.928819007120     1.418303972199
C      2.189088277754    -4.920506700843     1.248409650311
C      3.196625423446    -5.088480266544     2.219543521622
C      3.220718559898    -4.264838456906     3.363391819061
C      2.234256178870    -3.274276036701     3.536213320839
H      2.363282163902    -1.646637900474     1.460451315262
H      0.431559950929    -3.794726621485     0.663948697661
H      2.170460391175    -5.554772814932     0.365619558801
H      3.957498828521    -5.854106020413     2.085844719286
H      3.997489308606    -4.396397839956     4.112867926379
H      2.237290941681    -2.648700873243     4.425725119066
C      0.939527840459     0.625884587695     2.145409601752
H      1.926807711671     0.867978092632     1.765168591185
H      0.854500780539    -0.014227399686     3.016861877234
C     -0.204686999359     1.293459222592     1.716483667077
H     -1.119144476393     1.115091371207     2.257443007730
C     -0.245745781117     2.387353687894     0.731773269340
O      0.797202243611     2.717301820950     0.109607910101
O     -1.499130499031     2.921674215091     0.385666727346
C     -1.486877326368     3.945798621356    -0.619374630551
H     -2.525393232427     4.296866279512    -0.802348782037
H     -0.878822204864     4.818389638386    -0.287932587835
H     -1.077400931260     3.555388761840    -1.578928182266
Pd    -0.084357918077    -0.677233273613     0.545963013634
C     -2.054288495095    -2.246508736769    -0.825090987953
O     -0.729378054822    -1.956489580763    -0.876031710832
O     -2.628563830268    -2.958922787138    -1.668254510091
C     -2.808967683048    -1.576749821485     0.365839255479
H     -3.557988826704    -2.304302167921     0.704496141022
C     -3.524721528001    -0.317804970648    -0.078909675855
H     -4.078243140360     0.123905964963     0.774456590980
H     -2.785381138824     0.425950412006    -0.442680951983
H     -4.241592025403    -0.551290001922    -0.894179491330
N     -1.834590265398    -1.194284436939     1.403551757533
C     -1.958278019247    -1.308976008850     2.737531112014
O     -1.054993285861    -0.962310582109     3.564572168489
C     -3.216463201986    -1.865039241666     3.289278177181
H     -4.058993954440    -1.240938385357     2.946663998613
H     -3.317460195286    -2.911457236620     2.956070260820
H     -3.165693929121    -1.836238784970     4.394076826161
N      1.618276564733    -0.392839591503    -0.601792666599
C      1.395485987358     0.115491765756    -1.853824206970
C      2.456912679894     0.336819948950    -2.709862400275
C      3.743983279639     0.045079447104    -2.312646689612
C      3.934405146239    -0.481581213167    -1.062570430250
C      2.818014674028    -0.704712358536    -0.229182075906
H      0.386618192074     0.360764073218    -2.164313706983
H      2.273062041800     0.745601019894    -3.688746517897
H      4.585385607698     0.219375876323    -2.977403681872
H      4.902187483962    -0.751809555331    -0.693065153744
O      3.119316277999    -1.256002737439     0.943036573271
H      0.440407941446    -2.366302887782     2.737262613212

