# STO-3G

title

0 1
C     -0.193315398092     3.004903471912     0.209026343763
C     -0.050316124697     3.242537043739    -1.178325687368
C     -1.141839459073     3.677094338069    -1.948456614919
C     -2.391733480387     3.904962598493    -1.338293761342
C     -2.538719525205     3.696414614557     0.048270188407
C     -1.448316477932     3.247108385125     0.815794240386
H     -2.942220067568     1.120858671887     0.371401450667
H      0.910585943717     3.058594912849    -1.655194714587
H     -1.018292877342     3.839932179462    -3.015790460647
H     -3.234366433546     4.252607578821    -1.930533384082
H     -3.491913091356     3.904184721874     0.529091577808
H     -1.560020114157     3.119660777920     1.889014644753
C      0.983557477067     2.575866263062     1.009991719265
H      3.000632544043     0.944156935729     0.533783813276
H      1.915914803222     3.081244262755     0.764003403084
C      0.904415009122     1.806997057795     2.191873593253
H     -0.049784177399     1.391820106678     2.483554530275
C      1.961231974678     1.743240942729     3.209531354384
O      3.157484541982     1.857426829963     2.828918279921
O      1.650822802654     1.190004421677     4.460920687778
C      2.743482477270     1.060099622489     5.381703147241
H      2.369285492229     0.631307774613     6.336977541706
H      3.523956996184     0.375009438704     4.979691521608
H      3.197117822856     2.053002368390     5.602497911098
Pd     1.532991454987     0.485939897230     0.518022587199
C     -1.075966225921    -0.762337276762    -0.453147365046
O     -0.394851064535    -1.449780884440    -1.325378085693
O     -0.541504476054    -0.063235933658     0.482565162507
C     -2.613649529797    -0.748993094431    -0.555972484125
H     -2.974787597552    -1.767890218995    -0.377447665787
C     -3.094951733501    -0.278037236368    -1.911262129707
H     -4.203894485456    -0.299470242235    -1.934647516043
H     -2.755725708444     0.765507120400    -2.079425908777
H     -2.699743526169    -0.935353994572    -2.712882091290
N     -3.169519397527     0.134590155118     0.457116035611
C     -3.518220693050    -0.366595522933     1.676536508794
O     -3.521450599791    -1.580974835201     1.975961471102
C     -3.941282198878     0.638538101002     2.674423873572
H     -4.792736727869     1.194418374891     2.247778555662
H     -4.239161041299     0.111949240449     3.597283168915
H     -3.088339126414     1.310376014023     2.865237509537
N      2.688457905280    -0.612706795842    -3.005307697615
C      3.733479312875    -0.454673380052    -3.875384052246
C      5.035678663709    -0.495251901574    -3.405674332479
C      5.291626385063    -0.715565756570    -2.067975359195
C      4.224316201332    -0.874740535075    -1.219326507292
C      2.919322497319    -0.820417288883    -1.762978215485
H      3.537332427868    -0.286660112316    -4.927996059078
H      5.851513836266    -0.370655492047    -4.099022767031
H      6.312535082753    -0.773640423082    -1.699246290867
H      4.356250466969    -1.110331057902    -0.183593545390
O      1.919720580348    -1.009847021783    -0.865463533885
H      0.775161674000    -1.309858579004    -1.225312591630

