# STO-3G

title

0 1
C      0.059613451985     2.935275510654     0.375124249731
C      0.242960046440     3.224644239358    -0.997686530663
C     -0.765594185090     3.862551076105    -1.738454173655
C     -1.966878124423     4.247576897480    -1.110428881882
C     -2.150006973757     3.987719324665     0.263343829477
C     -1.146806675916     3.331727074984     0.999841540759
H     -2.988957752683     1.546641436328     0.513144605395
H      1.166619344590     2.923826464811    -1.488373917984
H     -0.615155378922     4.062121483839    -2.796010043835
H     -2.743392920881     4.754095319533    -1.678058845894
H     -3.061699266555     4.314895764563     0.758152549355
H     -1.285752465104     3.154503431414     2.063164760803
C      1.159097176398     2.295704675365     1.142039763742
H      2.836994933152     0.297167781705     0.679481697476
H      2.156626904019     2.637964931102     0.872807583161
C      0.984452907790     1.534027248110     2.319277853182
H     -0.017267852205     1.271967250097     2.632729756103
C      2.037435494308     1.318073078908     3.321324360562
O      1.741664320957     0.716197666638     4.383829116177
O      3.378402643350     1.446994908795     2.915401732118
C      4.362742088600     1.187331442936     3.927569799701
H      5.379609410360     1.343040191862     3.506154792610
H      4.237275833195     1.882095767805     4.789642957058
H      4.294400328560     0.136331271183     4.291297456480
Pd     1.308648628411     0.143021093657     0.626645043840
C     -1.492778852662    -0.600941795967    -0.350636812122
O     -0.951967408408    -1.399747977704    -1.225675603149
O     -0.831191035777     0.016573900323     0.560700943092
C     -3.010819752933    -0.342163917112    -0.414254055373
H     -3.524269696788    -1.290975864887    -0.225310747694
C     -3.445690260672     0.205251092736    -1.756299952099
H     -4.543960120099     0.361888073808    -1.749845210810
H     -2.947966557065     1.181476915390    -1.934119649022
H     -3.182159823189    -0.504097940279    -2.567608258743
N     -3.387189759376     0.617770092430     0.613677754683
C     -3.732250108182     0.161531716374     1.853852004936
O     -3.878385036568    -1.046269035193     2.146787662638
C     -3.968765455744     1.183711937629     2.898141078937
H     -4.993746462047     1.035468882779     3.275934158095
H     -3.233150991908     1.008681533984     3.699433561733
H     -3.859513590213     2.200068142102     2.482030669463
N      2.166275071355    -0.869225193951    -2.942994320030
C      3.194303727075    -0.792777827342    -3.843743599243
C      4.486606823805    -1.089288386578    -3.443639491830
C      4.745753162553    -1.484996535230    -2.147700443013
C      3.695015274783    -1.555519485770    -1.266875757696
C      2.399384987246    -1.239263861413    -1.739189821438
H      2.994658515966    -0.487926348857    -4.864504438688
H      5.288677894071    -1.027746359142    -4.161208647310
H      5.754267293263    -1.745650934898    -1.837104151763
H      3.817706127526    -1.917590957110    -0.267113791385
O      1.413625548791    -1.354613093244    -0.813374664684
H      0.227573829218    -1.451272685867    -1.148218343532

