# STO-3G

title

0 1
C      0.351785255698     3.316299276160     0.075084209211
C     -0.942515646114     3.651163473402     0.532803802538
C     -1.823049963955     4.377289880156    -0.286995764575
C     -1.427366945987     4.772568801405    -1.580103052688
C     -0.136775187402     4.448241075896    -2.043594870849
C      0.747168226728     3.737009962049    -1.217132937908
H     -3.700632029526     0.572249650549     0.198499404782
H     -1.239208861573     3.370739049581     1.539252913539
H     -2.808251441955     4.651996602748     0.082746169725
H     -2.109595105215     5.334952542644    -2.213024798494
H      0.178206949136     4.752839265395    -3.038411124726
H      1.744148920884     3.487071693094    -1.576997976007
C      1.333856475534     2.616094471396     0.937968411106
H      3.048518444663     0.678374804339     0.472632787237
H      2.363227386400     2.946288778917     0.805870331228
C      1.019204623916     1.806575684669     2.050574787393
H     -0.007571393350     1.538689841807     2.260542029907
C      1.977520793707     1.475662366405     3.115619303979
O      3.201382714594     1.417377253047     2.815612724732
O      1.499225191654     0.916219105915     4.309380488837
C      2.491897962794     0.516891658916     5.264547574608
H      1.986571749550     0.107179497510     6.166193110254
H      3.148389650237    -0.279193212219     4.846287674277
H      3.112134436697     1.386383507885     5.579385503269
Pd     1.533110894244     0.490770047174     0.321301350933
C     -1.109890387361    -0.950158036009     0.033025033772
O     -0.453471907072    -1.976117612406    -0.427171312024
O     -0.616344611900     0.227921984565     0.156015131389
C     -2.549676837286    -1.190256345891     0.535499235937
H     -2.446969727763    -1.819805727909     1.429119137222
C     -3.420096350328    -1.911937451773    -0.471275916707
H     -4.428790410615    -2.074225233791    -0.038295687738
H     -3.517453768455    -1.293001486541    -1.386323108817
H     -2.975521334485    -2.894250468619    -0.733306594876
N     -3.209132116061     0.051019988545     0.913924194623
C     -2.896851728422     0.677174547183     2.080842343063
O     -2.035638004801     0.281764971411     2.900499007881
C     -3.694874934355     1.885597087975     2.380619043697
H     -4.750257474127     1.575620058142     2.456303624904
H     -3.342863851019     2.312331683538     3.335374285578
H     -3.562733768935     2.603677376784     1.554786159764
N      1.763644706704    -1.099309641037    -3.103146474750
C      2.428669577968    -0.922359875193    -4.286398391127
C      3.796139695609    -0.703124800724    -4.284355365267
C      4.500176395312    -0.679385601650    -3.098174112363
C      3.807859748362    -0.861266519442    -1.926670934782
C      2.411520522057    -1.078306004928    -1.997934466556
H      1.880331210921    -0.945090554179    -5.221011909057
H      4.310325332690    -0.566015110436    -5.221624753317
H      5.577074261176    -0.531940702304    -3.093840236657
H      4.304185236861    -0.914977532058    -0.980517790689
O      1.803682334463    -1.261858101718    -0.798255864831
H      0.698764522515    -1.712045838469    -0.732693287012

