# STO-3G

title

0 1
C     -0.203522587950     3.926898018028    -0.073611185418
C     -1.535128641455     3.941849228507     0.410127233123
C     -2.532484297499     4.647916495585    -0.283883805430
C     -2.222007838966     5.348334267945    -1.466858198091
C     -0.897628068790     5.349425294113    -1.947164116950
C      0.102248430454     4.651539358318    -1.250361708205
H     -2.640898276797     1.349549301400     0.411033049380
H     -1.788059376591     3.433676009612     1.338188637990
H     -3.547934757842     4.664165365838     0.105616172469
H     -2.997118879352     5.894671968851    -1.999160960044
H     -0.646891082125     5.893725199237    -2.854451980944
H      1.124900336604     4.654464603416    -1.624458365874
C      0.891350762101     3.228851797366     0.644070725537
H      2.753981154994     1.389591506366     0.052992691873
H      1.874707727512     3.686355377276     0.543016133994
C      0.692354838315     2.242519594779     1.633848184169
H     -0.307331245330     1.888277992681     1.838407247758
C      1.682595381548     1.877227099303     2.657243505462
O      2.896208566382     2.133975167117     2.434110200981
O      1.320217686422     0.918730886420     3.617273154517
C      2.340082765204     0.557058917533     4.559126779487
H      1.928452342239    -0.182101160017     5.279962447846
H      3.211127506285     0.091914399597     4.044229259678
H      2.680674503776     1.447738711966     5.134643097400
Pd     1.276015994255     1.237252222912    -0.270264983707
C     -1.247273671253    -0.402718267827    -0.778596752157
O     -0.536646000068    -1.423759438558    -1.169043983404
O     -0.835912646709     0.812070966995    -0.786151290180
C     -2.648114828296    -0.644663848175    -0.159993871717
H     -2.661026832851    -1.641287984427     0.289681160016
C     -3.757161208553    -0.560865740179    -1.183576287096
H     -4.732140942425    -0.738263954828    -0.684789093876
H     -3.770838850372     0.456708800458    -1.629077464803
H     -3.606233752639    -1.316914095492    -1.981192884344
N     -2.845852377445     0.433329516353     0.815571298813
C     -2.638999583570     0.417733155318     2.160515114453
O     -2.358116548483     1.458900946719     2.809885217385
C     -2.795896172333    -0.868326733732     2.872144177783
H     -3.792495999079    -1.272306533926     2.626566625771
H     -1.985162476088    -1.543410374590     2.557987996334
H     -2.721875551448    -0.676363374977     3.958315688182
N      3.952527817805    -0.333014827370    -1.327906234544
C      5.185548009284    -0.857256860038    -1.609049309834
C      5.286484096301    -2.110796288193    -2.185261014684
C      4.151968202226    -2.836530006965    -2.484172809827
C      2.930415601108    -2.284096045319    -2.191232484109
C      2.892562136662    -0.998218408607    -1.599879266638
H      6.078905316703    -0.288954683528    -1.377382624416
H      6.260667981284    -2.516559715605    -2.404279292514
H      4.224694710449    -3.819757121877    -2.941768387254
H      2.015325408974    -2.796731599732    -2.408967347451
O      1.663552347991    -0.513443190785    -1.346928611265
H      0.641859938446    -1.091214656561    -1.370982499556

