# STO-3G

title

0 1
C      0.030790427929     3.052689320987     0.065800844176
C     -1.183248822555     3.377413718619     0.716187300920
C     -2.268490782635     3.894907417336    -0.014031007140
C     -2.159992740701     4.087211341025    -1.406696219271
C     -0.951959878670     3.774380552443    -2.061032847410
C      0.136338599811     3.273781910880    -1.327723309103
H     -2.941594625056     1.374584174036     0.505189521366
H     -1.265934013900     3.256475326341     1.792935516682
H     -3.187147625834     4.170840993566     0.498911086673
H     -2.999251548931     4.487922195091    -1.969523641629
H     -0.858156664789     3.923591240508    -3.133364650462
H      1.065815707323     3.027155165838    -1.837646601554
C      1.211210796690     2.553271241272     0.816520047839
H      3.019223613844     0.691223441531     0.308379331654
H      2.168345295312     2.944507796143     0.476286065388
C      1.147602083027     1.863205940113     2.046673962377
H      0.183439498264     1.562391764413     2.430876406105
C      2.267552062742     1.748598644509     2.989565997905
O      3.436941852470     1.721201656276     2.519671987197
O      2.000916912868     1.296827154140     4.290824094344
C      3.142905156711     1.099402384453     5.136693084325
H      2.802374911951     0.761820344284     6.139957053425
H      3.816067453944     0.315895011996     4.720646383788
H      3.710866838049     2.048719998124     5.265393110231
Pd     1.515354421841     0.388786246631     0.425098371549
C     -1.263728579307    -0.733390849036    -0.177011275634
O     -0.720036547397    -1.587477965529    -0.994794511891
O     -0.594949516801     0.062791607690     0.577499596706
C     -2.801214141313    -0.635864580398    -0.110107074848
H     -3.180425800330    -1.588501266867     0.275551665447
C     -3.422699607026    -0.360280821297    -1.462071656971
H     -4.525994160809    -0.312139204461    -1.355817876608
H     -3.058632186736     0.616744424472    -1.842686138905
H     -3.159550033510    -1.164080296466    -2.180132120197
N     -3.189621174750     0.434361747159     0.797924978724
C     -3.329428110665     0.159248920855     2.128321863342
O     -3.259621741934    -0.987275950098     2.624553846743
C     -3.608014143165     1.307267783524     3.020606942613
H     -4.551024605544     1.090355475807     3.548920253738
H     -2.772540758189     1.376987806263     3.735116813872
H     -3.704924517437     2.239873151537     2.438445391977
N      2.162048515727    -1.036061282743    -3.084261686431
C      3.094825999256    -0.993804764029    -4.085347004956
C      4.442276602002    -1.083629675631    -3.778241640816
C      4.854233115965    -1.237830354572    -2.470559102615
C      3.896530468336    -1.281056166705    -1.487848619303
C      2.537729769307    -1.181374951426    -1.868733481556
H      2.775539210937    -0.878145144307    -5.114623997411
H      5.168776372680    -1.049980157886    -4.573803425958
H      5.909296679486    -1.334588509437    -2.227578441979
H      4.146359469860    -1.461335632148    -0.462758216482
O      1.651776909879    -1.253161908157    -0.842773742562
H      0.469032617728    -1.510258151657    -1.038360833380

