# STO-3G

title

0 1
C      0.658439102144     4.027539124917    -0.428178501767
C      1.032752161696     5.387484630021    -0.397909027013
C      0.386341425320     6.327860667444    -1.222829951356
C     -0.639058070080     5.911942516787    -2.092011035355
C     -1.011929581181     4.552965852171    -2.129761036176
C     -0.368567984427     3.612259783022    -1.306824203964
H     -3.148664387421     0.239664350716     1.117117059449
H      1.824308640713     5.716626070810     0.273949619327
H      0.680696748458     7.374168901710    -1.185607750865
H     -1.139734795894     6.634644349373    -2.732098095010
H     -1.801735135471     4.224510786315    -2.801212577837
H     -0.666821203563     2.565886793464    -1.349729364384
C      1.362819795226     3.042836565833     0.479661601110
H      2.159507340718     2.436918137242    -0.242021203322
H      2.111255234942     3.517826471163     1.122443135331
C      0.526077641709     2.011129800879     1.164457917170
H     -0.538895478247     2.040722629346     0.987474916333
C      0.909552669496     1.457628399728     2.472625758326
O      2.125663581074     1.192631215358     2.663721467107
O     -0.089141276142     1.020729633837     3.353516992363
C      0.355263071589     0.230828276546     4.466060297500
H     -0.519859601586    -0.055619639340     5.089111819721
H      0.834353407001    -0.711018047947     4.113643270831
H      1.067673075299     0.800715215496     5.103862757762
Pd     1.455252306818     0.802876216541    -0.247241287658
C     -1.099554890889    -0.613371000164    -0.124303479145
O      0.193551920319    -0.838688499396     0.112413604722
O     -1.533922631134     0.361454285475    -0.795130312495
C     -2.070120014024    -1.515573366503     0.669055099114
H     -1.518705798573    -2.234442662712     1.277787303479
C     -3.078468105197    -2.226739432917    -0.204330715633
H     -3.750283654971    -2.836071024777     0.434834129897
H     -3.689484394914    -1.476557852850    -0.748267599552
H     -2.560385657453    -2.887522769548    -0.928679835943
N     -2.786483486025    -0.598926006703     1.560496698415
C     -2.707884636834    -0.709680407367     2.915979385291
O     -2.130409696934    -1.634745126588     3.532927881347
C     -3.396637496086     0.358975187909     3.669922999463
H     -4.456015233898     0.358620574250     3.363810016798
H     -3.300609489752     0.146576585555     4.747903024226
H     -2.913352745432     1.318868839072     3.418371559887
N      2.645397581024    -0.240015281612    -1.693246904746
C      3.456533693638     0.464754401854    -2.542580408821
C      4.319613633364    -0.200225940306    -3.388255879214
C      4.371402128424    -1.577034225237    -3.394670681788
C      3.542264389756    -2.260338904176    -2.545212148421
C      2.671426398475    -1.543437779825    -1.698355743401
H      3.424610527312     1.548331688201    -2.543749337654
H      4.956310265210     0.364298471815    -4.050497651014
H      5.048814880064    -2.107055098362    -4.059307335821
H      3.526058537635    -3.331800839512    -2.505046139392
O      1.907915911989    -2.310136293952    -0.941137145535
H      1.175458184437    -1.820290880257    -0.409324086610

