# STO-3G

title

0 1
C      0.405788107059     3.903248707228     0.660900899512
C     -0.976755445393     4.063098265762     0.896484760268
C     -1.599947381340     5.293284214178     0.615523092190
C     -0.860307430475     6.374195279452     0.098376580864
C      0.519349022723     6.220166036761    -0.136597359586
C      1.144016155381     4.991877953719     0.142471547645
H     -1.671355864260    -1.177474150435    -0.388426992825
H     -1.578530563950     3.249273127373     1.291297591157
H     -2.664269684928     5.404932080113     0.808618745463
H     -1.349089800859     7.322646971237    -0.111792700477
H      1.104202828569     7.049689013545    -0.527119247117
H      2.213683269765     4.883174576470    -0.035577860561
C      1.153702221779     2.608105325261     0.927326725559
H      1.197062181383     2.128731298799    -0.233988628305
H      2.223229033211     2.787609201837     1.066110677088
C      0.602364818101     1.541562967986     1.800270046762
H     -0.449219070362     1.592383433031     2.048402345592
C      1.416048637537     0.845499568909     2.810259758269
O      0.824972089550     0.171980665968     3.691535754546
O      2.779419074020     0.648607933314     2.532856728741
C      3.461184196075    -0.280813466151     3.388342652631
H      4.527189833299    -0.354347415564     3.082744505717
H      3.425306433639     0.054934002186     4.449866786339
H      3.008945474111    -1.297206347088     3.308732825918
Pd     0.799589199748     0.464717991151     0.013266705120
C     -0.243137515378    -2.098699684053     1.589926609438
O      0.604399301597    -1.517280465686     0.717704001929
O      0.025586723835    -3.140234389497     2.217866532362
C     -1.616990116022    -1.363744609497     1.714364565939
H     -1.546832624879    -0.604305686577     2.502013484992
C     -2.751320587460    -2.304594475196     2.055238834681
H     -3.696313604444    -1.730040866056     2.146666492327
H     -2.862922016992    -3.056162037744     1.247596663934
H     -2.547029274931    -2.819764031081     3.016898349029
N     -1.952508419784    -0.688732687472     0.453198076148
C     -2.429403987121     0.576035737395     0.399214464965
O     -2.623294033375     1.311584259593     1.401176486260
C     -2.711502028468     1.130851024955    -0.943553459384
H     -3.782890037802     1.393952228899    -0.965818443462
H     -2.101869258555     2.041010069406    -1.068745751460
H     -2.490891896172     0.395372929291    -1.737197246369
N      1.209722254122    -0.252765698459    -1.970340737944
C      1.055560001197     0.580980336329    -3.045466567279
C      1.544283956227     0.216112926261    -4.282025806346
C      2.182546701963    -0.992914523951    -4.454463371990
C      2.315519676899    -1.816624013487    -3.368682055269
C      1.799330257048    -1.411767775357    -2.119468690857
H      0.555935296035     1.534887262769    -2.920287096303
H      1.420887582337     0.881793586549    -5.121236994359
H      2.566949399696    -1.287346708718    -5.427647234071
H      2.791710122024    -2.775314718132    -3.434890492509
O      1.968595914725    -2.285922699830    -1.154146419072
H      1.471240929656    -2.069100645807    -0.244903125482

