# STO-3G

title

0 1
C      0.577991027955     3.992245848821     0.262106971681
C      1.378706592805     5.047686666655    -0.231103799109
C      0.796544617479     6.247698678571    -0.676695774457
C     -0.601846016575     6.404807396125    -0.637483666266
C     -1.403741541074     5.355700110249    -0.147595158784
C     -0.823850612379     4.154019411504     0.299590132445
H     -1.596987639571    -1.244330414914    -0.353918902867
H      2.462481260815     4.936189816031    -0.257081525802
H      1.428309069744     7.052815537917    -1.044445305379
H     -1.058423497224     7.331423174594    -0.977407450135
H     -2.484227865357     5.471216605681    -0.106131399003
H     -1.470932254313     3.364220315303     0.670912485055
C      1.285129601543     2.729246843767     0.720558544166
H      1.410076320012     2.119375441052    -0.370204955526
H      2.344213700271     2.917990825510     0.918221523476
C      0.663049440299     1.767422588177     1.666618211634
H     -0.402118432195     1.845802340929     1.832644342963
C      1.403877191018     1.179826640257     2.795101621858
O      2.642408258270     0.999795204375     2.660653587612
O      0.669856401130     0.504779075675     3.782235089019
C      1.426912258626    -0.327597825374     4.672775655405
H      0.738848255631    -0.809971711656     5.400598010158
H      1.946516575988    -1.138513399493     4.111423949804
H      2.174483627121     0.271240810018     5.240337270227
Pd     0.974473095823     0.493877115683     0.030548852545
C     -0.245312599980    -1.833369601801     1.842292171307
O      0.639736348711    -1.389944498344     0.928366363581
O      0.005455737279    -2.729233869087     2.671043867856
C     -1.640668793478    -1.134973618138     1.758909383361
H     -1.647612083762    -0.276243065131     2.440623769022
C     -2.776413087649    -2.058745152289     2.139230327006
H     -3.738383534267    -1.508513035705     2.080701360808
H     -2.808039420239    -2.914135860153     1.434132284489
H     -2.636986411982    -2.434751186368     3.174067814340
N     -1.895500063232    -0.640151597028     0.403330350166
C     -2.297213893564     0.622954629152     0.139825380669
O     -2.499326706719     1.511596424885     1.006312341417
C     -2.483195967075     0.944286062309    -1.290144694549
H     -1.533074543832     0.765296068472    -1.818041514267
H     -3.273132638962     0.278673002045    -1.678126035284
H     -2.791384057588     2.001862853648    -1.385283872158
N      1.502965596166    -0.433507832193    -1.836650737125
C      1.512728642936     0.310913927250    -2.986137097200
C      2.061336299285    -0.203215691245    -4.141737479992
C      2.600091206562    -1.471283318141    -4.157804831429
C      2.573885961916    -2.201306717964    -2.999743260822
C      2.003007663402    -1.642929308174    -1.836405414312
H      1.091824281415     1.309956570630    -2.984870252245
H      2.065982236569     0.392746631179    -5.040349166914
H      3.032520625139    -1.882674635752    -5.066293303833
H      2.970234069151    -3.196299274400    -2.943645157142
O      2.023208490740    -2.436582970404    -0.790143544024
H      1.513519861707    -2.085454962302     0.066253730750

