# STO-3G

title

0 1
C      2.321398715995     4.097230186226    -1.734220911159
C      1.854367908601     3.874606637383    -3.047424763826
C      1.217309562188     4.906649988366    -3.766867501794
C      1.051964529355     6.176492873678    -3.176214002787
C      1.535766021199     6.411146686325    -1.872955037399
C      2.168777131087     5.374505429769    -1.157269915160
H      2.813919392096     3.291330203447    -1.191423037175
H      2.012089466088     2.903742145259    -3.513004746130
H      0.868518148524     4.729371562128    -4.782329456970
H      0.564403741901     6.975925874068    -3.729735842426
H      1.424618176409     7.394872569176    -1.422091551492
H      2.550160963891     5.560146221139    -0.155491546562
C     -0.044445124626     3.358391813870     0.571499508775
H     -0.280910328082     3.987843541163    -0.282150828257
H      0.814691740418     3.656814389272     1.162307649065
C     -0.878907620407     2.337635402958     1.021257805229
H     -0.657230007324     1.828034124861     1.944170431009
C     -2.166111284084     1.979672687464     0.402134169726
O     -2.464358126523     2.454423910941    -0.728515466609
O     -2.966779585582     1.001894626849     1.015512099733
C     -4.177478634927     0.657524262092     0.327531887037
H     -4.724600628503    -0.114304717885     0.910864786395
H     -4.839770602951     1.546668026020     0.221920363294
H     -3.955350083362     0.238079687278    -0.679883193534
Pd     0.818300417650     1.466358457404    -0.278160743685
C      0.108336083454     0.259080657168    -2.959519756532
O     -0.182476396989     1.403828260024    -2.152977643675
O     -0.379533909536     0.138475182020    -4.076089388327
C      1.081965330937    -0.666618734003    -2.191110539324
H      1.605816340055    -1.242686750026    -2.966566159442
C      0.334897753193    -1.635773848907    -1.300848554280
H      1.063371844548    -2.285176404827    -0.772179662413
H     -0.245519259112    -1.078361999655    -0.537016435989
H     -0.351144012915    -2.268459555537    -1.901239791611
N      1.938943218017     0.154351240394    -1.346191403026
C      3.269905269038     0.381910182118    -1.464889152733
O      3.861823292720     1.365539250555    -0.945378709292
C      4.080658284054    -0.609451972854    -2.215244371602
H      3.887286075818    -1.606033495653    -1.783629471586
H      3.810004729496    -0.553563262409    -3.280920510676
H      5.148889238881    -0.351198171783    -2.092449507059
N      0.487740961276    -0.506692597057     1.920765190497
C      0.204073271694    -1.558527439798     2.749053841056
C      0.991322097116    -1.801324950861     3.860392119817
C      2.069492353246    -0.988786466140     4.144836913216
C      2.334577419743     0.057756267327     3.302617259119
C      1.503767398531     0.259909057744     2.174441806010
H     -0.643099882537    -2.198376315949     2.532424087538
H      0.757421321390    -2.631426046838     4.505229471800
H      2.693474980051    -1.174232156304     5.014700796273
H      3.157822741487     0.727106336217     3.449184489275
O      1.844119117780     1.305316022782     1.429710994315
H     -0.718150008049     2.106685365177    -2.581735961520

