# STO-3G

title

0 1
C      0.115622410242     2.477914772037    -0.783759863937
C      1.063503816048     2.765827443053     0.224284708230
C      0.708885618295     3.576018168623     1.324879810592
C     -0.594356964574     4.113050491615     1.409740340009
C     -1.534151484204     3.839649938855     0.395597230930
C     -1.181790329383     3.022372660212    -0.699015599081
H      0.415910751997     1.839392450646    -1.611696378094
H      2.068672682439     2.358749263438     0.137133993297
H      1.443030663447     3.803447666984     2.095005793516
H     -0.870549255878     4.737520840873     2.255944390529
H     -2.536284511231     4.257266311145     0.459657097291
H     -1.911222845653     2.789086328794    -1.470027038163
C     -0.309725915274    -0.971953521027    -2.682585695134
H      0.679427926737    -0.644063375424    -2.989211510637
H     -1.169795186473    -0.367605999350    -2.959970979069
C     -0.516109633608    -2.191448682519    -2.010989858908
H     -1.528837822333    -2.502959056281    -1.797699581012
C      0.517515213584    -3.220744604638    -1.799587215672
O      1.615238977510    -3.157289197316    -2.415257881308
O      0.197465015748    -4.324872763070    -0.988708184894
C      1.243956817076    -5.289816838027    -0.811021367912
H      0.885007555556    -6.107168173263    -0.149669055933
H      1.539855815362    -5.736510471322    -1.787587017046
H      2.135764113311    -4.820985581456    -0.335581718004
Pd    -0.304844031346    -0.593941742105    -0.490400743920
C     -1.676619103707     0.129384140525     2.111544554532
O     -0.421637959099     0.285618408915     1.484026033767
O     -1.974550243900     0.717652488902     3.145124589990
C     -2.537568164822    -0.834863258032     1.260211289610
H     -3.567566441576    -0.697126983592     1.612611942088
C     -2.155246763747    -2.282619562201     1.486227148426
H     -2.806783741034    -2.937263156955     0.870816882988
H     -1.100731149252    -2.454404628251     1.184677515613
H     -2.278561451573    -2.552366269549     2.555964221027
N     -2.314841561708    -0.531880843585    -0.160538268742
C     -3.189783014909     0.027686785912    -1.026232930478
O     -2.885812755397     0.397624045271    -2.197456537044
C     -4.600936629056     0.197702658057    -0.599167986615
H     -5.006381705694    -0.791839394514    -0.329462807474
H     -4.628836456806     0.908613979257     0.243033582227
H     -5.178381281990     0.613177152727    -1.446257399380
N      2.355004379355     0.546037184651    -2.143924257676
C      3.380296607228     1.113351479856    -2.850339108939
C      4.691837861591     0.883301820855    -2.477493089299
C      4.980817594215     0.070223567427    -1.402333416576
C      3.939430775282    -0.487109321712    -0.708860632250
C      2.611822439740    -0.224740161693    -1.129835204638
H      3.159354143053     1.750657349208    -3.698387528895
H      5.489603409737     1.334431557140    -3.042969228911
H      6.009592830956    -0.123365141205    -1.111725077525
H      4.088108612033    -1.136835519417     0.128032824815
O      1.689937864306    -0.811858427713    -0.377354373788
H      0.129277495720     1.063717570272     1.738026538464

