# STO-3G

title

0 1
C     -1.853201706370    -1.681686762847     0.576181367496
C     -3.233073880708    -1.850196796082     0.877374457838
C     -3.622580413871    -2.438512104165     2.082664619360
C     -2.648524368879    -2.880389663569     3.018875366992
C     -1.288725952937    -2.739830619169     2.737819387742
C     -0.871255329400    -2.133200819107     1.515232353244
H     -1.553271274578    -1.327428926320    -0.404409707808
H     -3.979452558689    -1.521495153697     0.159750388871
H     -4.678283179249    -2.557848594151     2.311769115362
H     -2.967728968191    -3.330581619491     3.954932978072
H     -0.539243447628    -3.093456447144     3.440359591538
H      0.177505903455    -2.158308291743     1.235603939141
C     -2.375906338629     1.537493625280    -0.941854407387
H     -2.782770645173     1.091815157245    -1.847471404754
H     -2.738816285240     1.128917764773    -0.001422786594
C     -1.444797062708     2.518950090458    -0.950784945783
H     -1.045783263844     2.882433712818    -0.016709889712
C     -0.866201329003     3.123665322671    -2.161717549135
O     -1.284691805763     2.773628374322    -3.300403410620
O      0.114554163047     4.120097069311    -2.017110212403
C      0.796661076821     4.496654186125    -3.220628006360
H      1.553383293362     5.275163492084    -2.986016899661
H      1.325607790413     3.619060254082    -3.659555018261
H      0.084431890532     4.915280823838    -3.967163317017
Pd    -0.978311943497     0.209341606514     1.815921447301
C      1.424397889332     1.260765710033     0.296195842596
O      0.566395116056     0.223771672451     0.514527708292
O      1.501320230832     2.262632176281     1.027078479051
C      2.278827799529     1.014775060881    -0.995321947737
H      2.776016376581     0.039798057297    -0.838976670656
C      3.334684509049     2.077585166775    -1.173518208871
H      3.959899917795     1.838885975356    -2.058796803935
H      2.838777250976     3.056734824525    -1.341219425693
H      3.982447820676     2.139574161763    -0.274671376843
N      1.512038553569     0.990825307450    -2.256915768893
C      0.679024241857     0.052399085505    -2.537671733938
O      0.221101722558    -0.940292531735    -1.713470719832
C      0.126005322166     0.007665970156    -3.891625706649
H     -0.970030391855     0.107460847111    -3.816541434262
H      0.532587284345     0.852590665842    -4.477870288276
H      0.404571373881    -0.954567563757    -4.353013417032
N     -1.217316727207     2.099269237508     2.692427309211
C     -0.762686834136     3.372442463929     2.887024197035
C     -1.443840396941     4.208110603807     3.758260602836
C     -2.567810342861     3.766502827724     4.435803446368
C     -2.996515706364     2.477844963463     4.232370746245
C     -2.270808758086     1.666365055996     3.340561048597
H      0.104977888211     3.740073104158     2.357614979659
H     -1.089470026686     5.215059804959     3.904120338503
H     -3.098125675444     4.425526173615     5.117785952286
H     -3.849420669737     2.058978435240     4.724874975770
O     -2.616047198471     0.414485993340     3.114653397952
H      0.390401569657    -0.667972166544    -0.750179503947

