# STO-3G

title

0 1
C     -1.788080631982    -1.152373234081     1.242426458548
C     -1.672645923813    -1.227982162220     2.646150914654
C     -2.178030466619    -2.347222145678     3.334384016141
C     -2.804984771040    -3.390001337549     2.621745156112
C     -2.928418968449    -3.311177841962     1.220972316525
C     -2.421111658568    -2.191921243550     0.529356988825
H     -1.416695626798    -0.280770323043     0.711141535188
H     -1.200689312340    -0.419482625534     3.201057279071
H     -2.085955985852    -2.404277690431     4.416503973697
H     -3.194896173351    -4.253742853003     3.155374918672
H     -3.416673109241    -4.112704691752     0.671596761387
H     -2.520210304200    -2.110312503073    -0.549836189424
C      0.906991295074     1.194900463352     0.903554136500
H      1.105963300132     0.420830286474     0.166668287044
H      0.582016258696     0.876903866550     1.887219137171
C      1.330030054317     2.527001727621     0.736731117625
H      1.251771901425     3.171906721629     1.599057043138
C      2.124128406991     3.010029479892    -0.407961752565
O      2.565996910589     2.189417983036    -1.259004515503
O      2.436064419175     4.378254504523    -0.481681857886
C      3.223404146756     4.781809187299    -1.610449082538
H      3.400778218951     5.877757225438    -1.561625357302
H      4.212164101404     4.269352396198    -1.606093105204
H      2.692304092525     4.556369847337    -2.562976462226
Pd    -0.845445525354     2.343342504737     0.153809363936
C     -1.512677539165     1.609602143045    -2.142608712217
O     -0.341301739513     2.167049039585    -1.863314829365
O     -2.529452102866     1.938354046877    -1.409570544198
C     -1.470702685371     0.385300275806    -3.079875774870
H     -0.833416842301     0.631590842151    -3.946051459528
C     -2.831120864020    -0.065433496580    -3.549511538282
H     -2.721894871009    -0.971434073973    -4.180011482214
H     -3.463230159093    -0.317799680475    -2.671771251581
H     -3.320125365448     0.737936348985    -4.137824409251
N     -0.957417057531    -0.640855957546    -2.165840948118
C      0.264221511894    -0.995764670867    -2.036864904164
O      0.669263333634    -1.761909103394    -0.982898773696
C      1.340968918376    -0.627715985237    -2.971311365039
H      2.290774891294    -1.078267169199    -2.629586493328
H      1.079380371149    -1.009562926809    -3.971566262356
H      1.448116575344     0.472504178328    -2.973080698494
N     -1.738734282853     2.362828252149     1.941212219518
C     -3.081597609616     2.102151300928     1.868521681024
C     -3.833904537911     2.030478577315     3.018638463646
C     -3.257754581484     2.225584357399     4.251407955431
C     -1.916095415602     2.484744196440     4.316514315358
C     -1.133265830366     2.549470162470     3.134628160808
H     -3.555291058043     1.947054786211     0.908022246059
H     -4.887560169784     1.817408325227     2.946427101766
H     -3.855490152940     2.170332784319     5.157145496637
H     -1.413069035222     2.639390936788     5.249451255810
O      0.104452563600     2.757082593960     3.287501244552
H     -0.076651942141    -1.914012343806    -0.355539727669

