# STO-3G

title

0 1
C      1.311456782950     2.925932279100    -0.539349179048
C      2.631781214607     2.801080264799    -1.017800433322
C      3.301466378181     3.933561557442    -1.525349749590
C      2.655046686654     5.184396422864    -1.568093482034
C      1.333293383314     5.301198789576    -1.099233429006
C      0.656855920563     4.174544039117    -0.582765278519
H     -0.331828796046    -1.144258615824    -0.189179067323
H      3.137642709226     1.837944121386    -1.004849463996
H      4.322150594847     3.832114075588    -1.888121554235
H      3.174866370512     6.054542507871    -1.961734992523
H      0.825490155970     6.263168480711    -1.128953862851
H     -0.368040044748     4.285954918090    -0.233201147041
C      1.422572610216     1.638818156234     2.142148881266
H      1.559369927853     0.706394101919     2.677456603822
H      2.322034226978     2.066463513079     1.714112634853
C      0.238038208968     2.360546983348     2.210995419755
H      0.195703939762     3.352304115908     1.791020999491
C     -0.892100112588     2.021993170321     3.093460728786
O     -1.921963582301     2.744047634335     3.037771935505
O     -0.715272651302     1.060297874703     4.102395632661
C     -1.826332724438     0.869999809614     4.989627083724
H     -1.578669824695     0.072649510660     5.722396085211
H     -2.050006046515     1.804873858442     5.550725133673
H     -2.733921512438     0.550042976228     4.429043380535
Pd     0.388678552665     1.274480476959     0.130684825879
C      1.613300333386    -1.499253950781     1.837102536320
O      2.232442231626    -1.150776036200     0.685251586732
O      2.236725654576    -1.655200308558     2.900964822230
C      0.064213475676    -1.665845386792     1.813347090373
H     -0.303997426070    -1.344717939151     2.790145086135
C     -0.325251602855    -3.118699418027     1.611503747178
H     -1.426022596999    -3.229004207650     1.698332826358
H     -0.009204370449    -3.452653145025     0.600914674332
H      0.157922244841    -3.756485687147     2.381098443730
N     -0.612548255638    -0.856405683074     0.761026504558
C     -1.934482791537    -0.479084433383     0.983284871465
O     -2.477331642081    -0.463390552270     2.101125623017
C     -2.715362962279    -0.030467736264    -0.188024962995
H     -3.623915071714    -0.655263668723    -0.231634973315
H     -2.994671895411     1.023310488159    -0.023198789272
H     -2.143917636149    -0.150952899190    -1.122061716769
N      0.139659834122     0.769694497686    -1.900618796300
C     -0.300369425503     1.671319567440    -2.834379376442
C     -0.319144054241     1.334814048466    -4.171009932381
C      0.107201862965     0.095376164720    -4.590114039189
C      0.539856018362    -0.797096357345    -3.647758794523
C      0.551195244413    -0.431124874955    -2.281716870626
H     -0.656569272705     2.645502257073    -2.524371892859
H     -0.668007721710     2.054571186426    -4.893368051033
H      0.094616560717    -0.170750114232    -5.643775501474
H      0.875102748487    -1.781295212932    -3.906743549172
O      0.952344871649    -1.341805238195    -1.456222770683
H      1.706361756710    -1.208012269675    -0.209294425769

