# STO-3G

title

0 1
C      1.497906814435     2.900120615540    -0.594757562763
C      2.471339498394     2.724002643518     0.408524774492
C      3.595326675091     3.578684283968     0.426955158812
C      3.742390405521     4.595052869984    -0.536533938412
C      2.758521589345     4.762506752785    -1.530571913734
C      1.631872098514     3.913600687647    -1.565226194362
H     -0.956196264045    -0.922125564143     3.587685012934
H      2.373457518246     1.950923866233     1.167403484136
H      4.348536928997     3.444142285424     1.200605960914
H      4.610701533704     5.249744999934    -0.511974947584
H      2.861798283879     5.547665406983    -2.277231532827
H      0.879985378924     4.046705572430    -2.340942455958
C     -0.820133689928     2.171366387226     1.281415058326
H     -1.306515433592     1.241856258517     1.569903870599
H      0.069822345243     2.441552945140     1.837117184440
C     -1.399120967513     3.071548982807     0.384964404099
H     -0.938896535414     4.034751285440     0.224085886137
C     -2.736044501231     2.905173409088    -0.212413147385
O     -3.119085567470     3.741828773679    -1.070057089780
O     -3.490748115423     1.760334044550     0.088522726622
C     -4.685332858954     1.573041978181    -0.682191450271
H     -5.189265280103     0.637864979826    -0.355339404280
H     -5.391742498304     2.421075594374    -0.534555245637
H     -4.443376205401     1.471916458054    -1.764772896050
Pd    -0.037488304115     1.647521446902    -0.728782068449
C      0.046572832582    -1.808590965981     1.016788525309
O     -1.042529191944    -1.007181211619     0.872144637268
O      0.565237480627    -2.476170652803     0.103510673222
C      0.613387225786    -1.797975105251     2.455506664757
H      1.679633011430    -1.565952865296     2.356312451442
C      0.473614556555    -3.145770138011     3.129996780329
H      0.954112668196    -3.110803273569     4.129718147429
H     -0.601646788032    -3.384811574562     3.258966122087
H      0.961117542479    -3.935288816391     2.520834569857
N      0.013570603555    -0.794304941151     3.324668256250
C      0.612178849454     0.403455508586     3.547032682971
O      1.671526636716     0.793150438667     2.999059019554
C     -0.061826169144     1.272074424013     4.535837050569
H      0.511870135385     2.209813138669     4.638209421605
H     -1.086356236168     1.473017911319     4.181756813777
H     -0.087806704681     0.730960792206     5.497834091403
N      0.670305659497     0.480679674389    -2.280405442553
C      1.743530973703     0.349203664183    -3.113039541301
C      1.760924161857    -0.676373540483    -4.039741735865
C      0.711423646186    -1.573317176786    -4.122015039670
C     -0.356231868446    -1.419119582768    -3.272511493440
C     -0.336270984066    -0.363585060738    -2.339398292214
H      2.569665299802     1.048239923172    -3.048514299026
H      2.610012065124    -0.781992375378    -4.694554105432
H      0.732446014302    -2.386067818044    -4.843016936201
H     -1.193006955526    -2.086817771482    -3.270968085474
O     -1.333197001359    -0.215598946762    -1.501918326769
H     -1.285256376965    -0.814771376869    -0.116798429999

