# STO-3G

title

0 1
C      1.222230653546     2.808204126442    -0.617654696987
C      2.558647180878     2.806499330564    -1.059350115910
C      3.112578053735     3.988862570796    -1.594265068374
C      2.335263151091     5.158371341176    -1.699939698173
C      0.995169713651     5.146033425266    -1.268787605642
C      0.432119654734     3.971227304821    -0.725095600016
H     -0.595046506533    -1.136771122117    -0.040824129697
H      3.154209877725     1.897577887676    -1.020414298714
H      4.145344752003     3.984732401293    -1.935905202006
H      2.767278677480     6.065183940682    -2.116022975649
H      0.386664123208     6.044447516799    -1.348295530943
H     -0.603933134718     3.982620910718    -0.391624335595
C      1.548532163336     1.416931238938     2.060983235967
H      1.632665655869     0.456007570197     2.558688132225
H      2.458215105539     1.778518472281     1.592243267945
C      0.438255046683     2.243342921490     2.196198393487
H      0.472107183850     3.241074478138     1.787996826333
C     -0.679144856653     2.003387939580     3.124782362292
O     -1.662727749791     2.787470191744     3.082591262012
O     -0.548563545051     1.031081155672     4.130122399610
C     -1.636067997793     0.942308549527     5.061820900076
H     -1.433178950025     0.126395398701     5.787881211909
H     -1.751981841501     1.894057138372     5.627284870095
H     -2.591261612442     0.705812250043     4.540401174232
Pd     0.390801788817     1.144712013342     0.125744057345
C      1.323378533324    -1.804080377620     1.427347094997
O      1.351976639327    -1.806454542649     0.089961759325
O      2.296316688817    -1.842988117209     2.205421791107
C     -0.148470781253    -1.701785099681     1.916212178711
H     -0.180476685879    -1.230403002419     2.899451725043
C     -0.807936358335    -3.065298749205     2.005713302022
H     -1.835402249722    -2.964521280499     2.411948620635
H     -0.862187924033    -3.518098157963     0.994156413566
H     -0.223118380063    -3.727644573659     2.677089669534
N     -0.872884923597    -0.876177006919     0.911616124754
C     -2.147361900418    -0.411531834770     1.169379114130
O     -2.701968055065    -0.441507765002     2.282258555817
C     -2.839641492184     0.214538627035     0.026269193897
H     -3.879608192103     0.435360507956     0.329108713043
H     -2.315947539412     1.148939844804    -0.213733081688
H     -2.830913978061    -0.493372220220    -0.821653817339
N      0.301543967938     0.558235751184    -1.895578719076
C     -0.617459879271     1.095628209202    -2.756969982250
C     -0.428308496119     1.013717552497    -4.119298667518
C      0.687142941518     0.397129349253    -4.637411054698
C      1.604277357940    -0.127424863001    -3.768650824231
C      1.392677643016    -0.031148941213    -2.373668103050
H     -1.496582582974     1.593514508597    -2.369691508469
H     -1.160210047701     1.442526413635    -4.783835410529
H      0.839507589415     0.333689834040    -5.711577669353
H      2.498226446033    -0.609877579162    -4.109629876710
O      2.331336080127    -0.527684382752    -1.637286672500
H      1.990289586248    -1.211848648546    -0.616933930961

