# STO-3G

title

0 1
C      1.359670388039     2.736666036794    -1.138436329746
C      2.732645756776     2.456412299526    -1.014123282466
C      3.653564001871     3.232918198709    -1.751899892704
C      3.208727143230     4.263269134627    -2.602095382474
C      1.829843428328     4.524599198935    -2.720609732316
C      0.896254871371     3.760902103656    -1.988407145112
H     -0.577012302626    -1.110634418489     1.268263251830
H      3.091633288750     1.651344793599    -0.378295472005
H      4.716806216854     3.022975000055    -1.656136361462
H      3.926622939081     4.856007398542    -3.164503413015
H      1.475602199755     5.319214128163    -3.374571140042
H     -0.167467544233     3.969200623755    -2.089604476521
C      0.355548247051     2.462177967451     1.839828926843
H     -0.075499840056     1.747399390956     2.534074986992
H      1.434850213313     2.550833856755     1.888106241353
C     -0.434115273075     3.375590566153     1.144346733667
H      0.039645227016     4.177145003130     0.600720907558
C     -1.897023862913     3.492179278943     1.273738128526
O     -2.502188826838     4.307343077595     0.531099152859
O     -2.592291780801     2.615710082103     2.122882074043
C     -4.023393052969     2.705083554275     2.083661164405
H     -4.458058169122     1.967887442094     2.792887057732
H     -4.366630561949     3.721345036982     2.383337553802
H     -4.406117216668     2.468947443086     1.064467940740
Pd     0.031022364035     1.586022030110    -0.202906349110
C      2.440152976749    -0.434815375645     1.694393232605
O      2.443402612165     0.461573415533     2.727771263752
O      3.170192375021    -0.285830160120     0.703257610101
C      1.445371002289    -1.622019606331     1.917661502208
H      1.755919230054    -2.115925294471     2.850243295855
C      1.476941226741    -2.633607610972     0.795772958660
H      0.761705728923    -3.454026629682     1.012607619852
H      1.180471348396    -2.144861209041    -0.154401547409
H      2.496868236216    -3.056328335680     0.686382426379
N      0.053791277269    -1.178542007306     2.094595449203
C     -0.353525827155    -0.649791063261     3.258404441537
O      0.433430184589    -0.285203764011     4.191052883406
C     -1.806357618897    -0.497232304019     3.437084917423
H     -2.254103316841    -1.504118340550     3.394294146704
H     -2.004292485483    -0.015556974955     4.409585649854
H     -2.196496515948     0.116118484197     2.605940805890
N     -0.094440577635     0.254843928986    -1.762560321078
C      0.412071313690     0.118951664410    -3.022747559445
C     -0.006093501651    -0.936189399402    -3.811656898569
C     -0.924938935131    -1.853254071724    -3.337383536892
C     -1.415106149072    -1.697511302029    -2.065234604857
C     -0.967862938203    -0.609192954708    -1.284130685129
H      1.133783717440     0.834722831009    -3.399582509557
H      0.394997271486    -1.041920825328    -4.805988711049
H     -1.249435683629    -2.684181694970    -3.957825083121
H     -2.118542286676    -2.374907360161    -1.626693701652
O     -1.406779832399    -0.470421493676    -0.066277312066
H      1.781434521307     0.215517444341     3.464525557157

