# STO-3G

title

0 1
C      1.199812439699     3.103973473914    -0.616626265038
C      2.022437106138     3.271423008635     0.512332543575
C      3.019829780500     4.272352443865     0.484036835415
C      3.185356066841     5.093877943871    -0.646838985006
C      2.346504310011     4.919402769572    -1.765302368148
C      1.349956298749     3.921151886838    -1.756275374333
H     -0.414807184779     0.069657635021     2.275934842910
H      1.906966828184     2.656712577055     1.401346199111
H      3.658128825369     4.403996235141     1.355221627453
H      3.953405147379     5.863955864725    -0.655352130871
H      2.459655583524     5.556020623895    -2.640697036496
H      0.705449389294     3.793969109734    -2.623893298938
C     -1.225603687256     2.132277636043     1.192088691772
H     -1.810045897541     1.226772224762     1.353567559084
H     -0.420472409458     2.325960479108     1.896677019521
C     -1.640549721202     3.097064400706     0.273744402720
H     -1.128865422381     4.045971339937     0.233822355890
C     -2.885578993144     3.021408235612    -0.510402840249
O     -3.126084291341     3.932243881583    -1.344412482138
O     -3.666739297752     1.855554068175    -0.454487688597
C     -4.785966500759     1.802408970542    -1.349575028195
H     -5.321723705534     0.838688438452    -1.209266871354
H     -5.499421606629     2.631997498535    -1.142775727731
H     -4.447671324596     1.857322292715    -2.409216082967
Pd    -0.164301072534     1.659451753068    -0.711587802758
C     -0.560752749209    -2.221682366285     1.352991360437
O     -1.279713138137    -1.169665886958     0.876425432734
O     -0.345184282123    -3.286985906327     0.754061133431
C     -0.011760154064    -1.904927388848     2.770883577006
H      0.894023370991    -2.505146115784     2.900073999817
C     -1.002442307975    -2.264385231021     3.856962824711
H     -0.559415312175    -2.052951341109     4.851206185875
H     -1.916230095860    -1.645108795146     3.737202723902
H     -1.269851833796    -3.339675209839     3.794805146888
N      0.244671595646    -0.462534889125     2.839000370732
C      1.290089908765     0.247720458472     3.315483541466
O      1.397057652697     1.492787693240     3.144406732455
C      2.331536728076    -0.474248222606     4.075352273965
H      3.066547329552     0.263981632867     4.443218231232
H      1.845394353961    -0.978742370085     4.926228975711
H      2.827283950375    -1.192621818079     3.401345944929
N      0.843841784028     0.481549365739    -2.081140721925
C      2.022618762334     0.449494027146    -2.768878136426
C      2.320921333216    -0.649719846613    -3.552511609812
C      1.442444473116    -1.713834435455    -3.643029978836
C      0.263283791866    -1.656111730811    -2.942401676085
C     -0.007285313883    -0.518315941187    -2.155566542439
H      2.716367195027     1.279477437931    -2.697532191583
H      3.252704942386    -0.675169863324    -4.093161052603
H      1.681680302779    -2.579988162501    -4.254222620185
H     -0.456241152286    -2.449878484503    -2.957425910553
O     -1.117171471935    -0.455109111667    -1.469125582534
H     -1.338127710365    -1.042636975875    -0.158626265481

