# STO-3G

title

0 1
C      1.014432390322     2.829515084410    -0.973747603748
C      2.310005095686     2.904064144741    -0.419898053173
C      3.049964070317     4.098780988240    -0.540369980202
C      2.503119453270     5.211092215851    -1.210639817889
C      1.210134729380     5.125948336060    -1.760472018132
C      0.460106435166     3.934803704419    -1.644946390804
H      1.247022347004    -0.081772972285     3.026730207894
H      2.740306458568     2.048944990514     0.096779263040
H      4.047326796054     4.157353065888    -0.109226679122
H      3.074775310196     6.131749669450    -1.300021164771
H      0.776539007202     5.980035863711    -2.276816020767
H     -0.537006303070     3.886555166530    -2.077618648013
C     -0.738110473587     1.831349448932     1.094316118353
H     -0.568902051214     2.899892458064     1.155118635235
H     -0.154274667863     1.217112957233     1.770013418403
C     -1.801608504248     1.293386289481     0.372344487439
H     -2.022644092992     0.235433272070     0.451808056808
C     -2.822624713786     2.081309535881    -0.340117206675
O     -2.615997594563     3.300857567582    -0.572663474794
O     -3.915767830555     1.405852902297    -0.905186182835
C     -4.844022290214     2.215985815439    -1.640633861975
H     -5.664946903675     1.574820976862    -2.028957421951
H     -5.293881307457     2.997251020457    -0.986494382970
H     -4.344935327802     2.702557325480    -2.509343911149
Pd     0.089617488836     1.071115307012    -0.893603701937
C      0.176969990423    -1.507015695808     1.531553780573
O     -0.628397950569    -2.175604418146     0.698308917032
O      1.166061241014    -0.823624770009     1.153571903663
C     -0.215366697666    -1.557148417530     3.023076997828
H      0.001219634030    -2.559586842633     3.420372000056
C     -1.685572466363    -1.257332876191     3.258801038883
H     -1.938283830000    -1.430978225302     4.324870198655
H     -1.896834381367    -0.196556103533     3.021630874275
H     -2.325930473630    -1.919055789440     2.640253020818
N      0.599947558976    -0.530703985057     3.674568640650
C      0.718370203327    -0.432486400759     5.024668761488
O      0.082981071799    -1.131846851287     5.847743731336
C      1.653576534165     0.596464626365     5.532507666907
H      2.420233923152     0.077336644415     6.131073171717
H      2.121781315976     1.142482361559     4.696672986861
H      1.076254299552     1.289495224122     6.167786884872
N      1.225087057371     0.201542510370    -2.387534553204
C      2.277508620177     0.471675063300    -3.213188820680
C      2.787493576410    -0.536014039870    -4.011358657117
C      2.243945825444    -1.807453309086    -3.979894776611
C      1.182182912351    -2.050498798891    -3.142855418730
C      0.690653226401    -0.995732848094    -2.346914733581
H      2.708141203889     1.466322616138    -3.237751750658
H      3.620689939189    -0.323538447844    -4.660893968049
H      2.647746009792    -2.598055885092    -4.606783360586
H      0.711152447410    -3.009470432746    -3.073679987957
O     -0.320901005833    -1.198068644479    -1.542737749007
H     -0.455902280262    -1.932160867576    -0.307499273166

