# STO-3G

title

0 1
C      0.620815103897     2.727241504716    -0.761951919403
C      1.886668508195     2.768874012121    -0.139834916035
C      2.652925478406     3.951390069673    -0.215968738746
C      2.167311638221     5.077368418923    -0.909838228029
C      0.905612289226     5.020855749536    -1.531361770908
C      0.127022870039     3.844566961218    -1.461649224907
H     -0.233954416057    -0.259746512781     3.780683355632
H      2.277326470898     1.911298786157     0.404356710093
H      3.625878478508     3.984628066885     0.269986756376
H      2.762255991287     5.986205106254    -0.964150214136
H      0.518844676829     5.884979685171    -2.067960718065
H     -0.843275556209     3.819329657563    -1.952623386508
C     -1.356045983726     1.519154147467     1.200941758097
H     -1.005996617466     2.482710820265     1.553602320638
H     -1.016921909579     0.626265248832     1.718447927292
C     -2.372298141176     1.416037260270     0.250394192597
H     -2.780433476492     0.438032933367     0.026283987592
C     -3.128802482528     2.549736075752    -0.309197289204
O     -2.772182753649     3.728436003091    -0.049621018738
O     -4.143355164627     2.282596799537    -1.242027546117
C     -4.819461787971     3.427991565604    -1.780521755026
H     -5.601083577916     3.091809874432    -2.496004138817
H     -5.317159439546     4.010891271550    -0.972264333021
H     -4.108854491675     4.087809959764    -2.328392495904
Pd    -0.361046377758     0.999449108788    -0.741659127794
C      0.426711328116    -2.319285788822     1.692923538960
O     -0.596629508273    -1.536169818105     1.249446758123
O      0.870608331018    -3.310176986381     1.088283729942
C      0.998584821695    -1.843883079058     3.049529160953
H      2.086262977700    -1.926701696129     2.949914058315
C      0.549145534223    -2.726497832442     4.194594942404
H      1.035402464432    -2.390403505346     5.133884993075
H     -0.550816068737    -2.649547255047     4.312844502285
H      0.829594043701    -3.782646917708     3.999542586145
N      0.677749682956    -0.460201204492     3.389089910724
C      1.488125265622     0.552639307342     2.969374380160
O      2.466658267308     0.399632223365     2.201294482389
C      1.218328321273     1.900719389155     3.518930968200
H      1.119013802431     2.605421147880     2.678266653100
H      0.306097927728     1.893255103377     4.139071916472
H      2.088160476229     2.183804230780     4.136307208512
N      0.866187411147    -0.023574801085    -2.054011000297
C      2.007443213214     0.115026353784    -2.789408225125
C      2.520229508721    -0.982077634973    -3.456524641860
C      1.895656079393    -2.213882729971    -3.378678159440
C      0.746483539025    -2.324958440659    -2.635114507182
C      0.253761396972    -1.184517143348    -1.971415172249
H      2.503681071206     1.077231047375    -2.846466988019
H      3.425009991887    -0.874290574717    -4.031676501993
H      2.308198901719    -3.077882424209    -3.892775864755
H      0.223398488541    -3.252295321300    -2.516761674213
O     -0.827283301174    -1.273131379935    -1.233635471945
H     -0.776118269488    -1.627136314842     0.236219425739

