# STO-3G

title

0 1
C     -0.078784488226     2.309630820076    -1.138344274478
C      0.702664936463     3.356734955555    -1.672714141594
C      0.155458400544     4.216531827044    -2.648925376750
C     -1.164681336114     4.032529163800    -3.100459273219
C     -1.934837152250     2.975891300796    -2.577959668217
C     -1.393651178893     2.109219738498    -1.605530954637
H     -0.596769370510    -1.556583799998     1.149350930014
H      1.727287122927     3.518630613554    -1.342586027066
H      0.763255389398     5.024266165949    -3.051621229572
H     -1.585332187259     4.696153113719    -3.852165068876
H     -2.951943315900     2.814948551995    -2.929439159114
H     -1.994067774451     1.280373903824    -1.240871504459
C     -0.377814692027     2.074789660895     1.975764516799
H     -1.259962340926     2.589505525959     1.608806555093
H     -0.558036233861     1.196413556378     2.581179364402
C      0.891249223153     2.636947076692     1.919326874909
H      1.708394080890     2.137446112954     2.422682809284
C      1.179217891950     4.007787623460     1.468335824848
O      2.380550294170     4.337674961828     1.290212784026
O      0.122148701833     4.867606148040     1.126648462610
C      0.495088618013     6.167526308211     0.649038362730
H     -0.422888316952     6.747824849288     0.412275354007
H      1.069706719385     6.724629480430     1.423295185502
H      1.102137394124     6.089948106655    -0.280811850215
Pd     0.665047842145     1.062380173827     0.223974472457
C      1.678871096502    -1.486061586028     2.545790236172
O      1.789213685587    -0.312799722016     1.753309274583
O      2.695952066136    -2.146580153681     2.767432236876
C      0.271602489596    -1.725080685086     3.093742118394
H      0.159950731590    -1.120935717330     4.008249447075
C      0.059302710377    -3.180241171469     3.456112605989
H     -0.943178262537    -3.306302225127     3.915067385375
H      0.104866453322    -3.793579294959     2.531467197359
H      0.831367322821    -3.524123124837     4.175282585768
N     -0.772300326799    -1.339770884437     2.156303150954
C     -1.896019596147    -0.734171824227     2.596585570923
O     -2.074951241156    -0.292324817030     3.763034022116
C     -2.960342252097    -0.583078127172     1.585807828288
H     -3.819004477914    -0.062574161471     2.043957377420
H     -2.548889463806    -0.012879573302     0.740663917863
H     -3.249032371603    -1.595444504581     1.251760819858
N      1.220796218351    -0.193583030916    -1.316830513857
C      1.962695265189     0.206313811142    -2.395324862444
C      2.277451434778    -0.690192263364    -3.392807827718
C      1.840886321412    -1.993722697063    -3.330321641434
C      1.084280133971    -2.378907850794    -2.258169738773
C      0.758780131046    -1.446670242148    -1.241149382083
H      2.332985191241     1.221795225018    -2.452818843833
H      2.869792305220    -0.363562285734    -4.231459113177
H      2.087307571738    -2.700934323345    -4.117737829808
H      0.702593870663    -3.374728775312    -2.156483020893
O      0.021988166202    -1.880130169682    -0.294894956269
H      2.700881224384    -0.281291304334     1.385461432965

