# STO-3G

title

0 1
C      1.721078815431     2.046990118701    -0.281599143562
C      2.420697957537     0.876851768610    -0.637842531132
C      3.805771807790     0.947470270474    -0.893227350212
C      4.487850674088     2.177484238012    -0.808710408928
C      3.778001033214     3.343544967331    -0.466474324185
C      2.392178710223     3.283957894180    -0.201283373448
H     -1.169965416376    -1.082867094567    -0.140974978494
H      1.894087870275    -0.069244603502    -0.736334947908
H      4.342064697485     0.041425589599    -1.168555178867
H      5.554731512121     2.226395209058    -1.013500168503
H      4.293894297460     4.299356175422    -0.401594545499
H      1.862184313325     4.194895838131     0.067524268568
C     -0.227154225443     2.911419721039     2.172919639998
H      0.463161735197     3.748308269949     2.152722031963
H     -1.288274445390     3.136410654231     2.211051852404
C      0.207409913383     1.611555244203     2.394527309869
H     -0.519377097774     0.832153016094     2.571291725221
C      1.598015941101     1.232918614325     2.703193032467
O      1.856141888405     0.025264502798     2.946219564650
O      2.582233874130     2.230734338503     2.812572723637
C      3.927433838930     1.762247623329     2.977710070516
H      4.616351835305     2.632182165370     3.027486964575
H      4.031949752285     1.177408457767     3.919517659838
H      4.232682736541     1.130952702979     2.112152034497
Pd    -0.235741299323     1.985579561360     0.089157106988
C     -2.905971006837     1.210514495335     1.005769665317
O     -3.000378934165     1.207789628711     2.346198977849
O     -2.638310346764     2.265467815472     0.369326910544
C     -3.000034156067    -0.158535056247     0.274055891906
H     -2.882875582954     0.058214950707    -0.789727460336
C     -4.314209228351    -0.887347271147     0.480423942313
H     -4.308433439040    -1.819262158271    -0.122996699713
H     -4.458419922115    -1.161489171467     1.543970073871
H     -5.158942292707    -0.249944906868     0.147238492487
N     -1.876568904742    -1.034212631964     0.648652001986
C     -1.633226689073    -1.469283858347     1.884351937993
O     -2.277374491335    -1.093408908340     2.928749320468
C     -0.541381525734    -2.439916977229     2.059624150017
H      0.205835404846    -1.997219229695     2.739406659572
H     -0.971733912896    -3.353323345953     2.500048183027
H     -0.073850433864    -2.671438956252     1.083877932716
N     -0.469198915466     1.537769491783    -1.901789322419
C     -0.516010367958     2.543971290395    -2.825532296669
C     -0.597322044294     2.246273109225    -4.168635836502
C     -0.626558997243     0.937541250700    -4.595678950033
C     -0.574320292869    -0.058402166316    -3.658338325194
C     -0.487629177172     0.263694347500    -2.280559326952
H     -0.493697448945     3.576718717968    -2.498226838696
H     -0.634166917363     3.046879687850    -4.888231304804
H     -0.687740830216     0.699782677684    -5.654121214227
H     -0.586569013840    -1.095809136401    -3.923637932588
O     -0.426618453038    -0.731564813996    -1.469222113883
H     -2.868765797670     0.239981934896     2.746552536084

