# STO-3G

title

0 1
C      1.106875030208     3.199108887094    -0.199948385930
C      0.952593535845     3.820154351771     1.056194820396
C      1.937967469132     4.707224549957     1.541974212616
C      3.074064465918     5.004300947120     0.769366921360
C      3.214877194289     4.414469259395    -0.501160554873
C      2.242245790244     3.516929427174    -0.983859752445
H     -1.037538258258    -0.546957251185     2.058707048675
H      0.080056598663     3.646979802655     1.677538339326
H      1.803351184874     5.167813849028     2.518754867401
H      3.829964994807     5.690036929809     1.144659194640
H      4.078563008031     4.649306449039    -1.120005212898
H      2.367342684772     3.085076614870    -1.972534379170
C     -1.821884645393     3.389278775973    -0.742102199936
H     -1.505508324905     4.163474696136    -0.054825157555
H     -1.927997149428     3.677726602124    -1.784861010964
C     -2.335222953629     2.168690110562    -0.306474817596
H     -2.764726290337     1.489625433589    -1.030301826273
C     -2.619583629585     1.806614532376     1.094607823790
O     -3.438517202033     0.881867018413     1.330952300596
O     -2.066297795698     2.573641860039     2.135019624116
C     -2.407100710368     2.158277000369     3.465950151611
H     -1.911299006947     2.826896623142     4.202011290677
H     -3.507434747919     2.217536937737     3.629648969469
H     -2.064419052363     1.115363471626     3.657108274410
Pd    -0.159967705948     1.925203493730    -1.096190868863
C     -1.118891559591    -2.094274037168    -0.455595405940
O     -1.677438933042    -0.855797313470    -0.609255675568
O     -1.028975213266    -2.942219338438    -1.359055222269
C     -0.596477411223    -2.324285180508     0.980913549911
H      0.318172874840    -2.916188284110     0.871789354159
C     -1.584102217587    -3.102684798794     1.823859462828
H     -1.146781370069    -3.293134109378     2.825648300501
H     -2.513698906398    -2.508132170746     1.944660176814
H     -1.822772227068    -4.072513978170     1.340033848531
N     -0.268557304340    -1.092516931298     1.689974054620
C      0.960560038783    -0.514454853303     1.573346763256
O      1.887915615368    -0.925930350827     0.841147190373
C      1.183679174979     0.657433284277     2.442967422911
H      2.168518882528     1.097421999234     2.203919985295
H      0.376299906559     1.377596709096     2.259158592880
H      1.155254275212     0.309195306501     3.489383327887
N      1.213169063248     0.628416591993    -1.986161365490
C      2.499686676973     0.173336291501    -1.909447016256
C      2.894563789571    -0.882161984834    -2.711230670080
C      1.993196222824    -1.509692858695    -3.550632593674
C      0.698059083689    -1.055631142308    -3.583602173635
C      0.337479621341     0.021987267094    -2.752742813876
H      3.208747577852     0.653697751648    -1.245178148893
H      3.908194644638    -1.240650947806    -2.645993778590
H      2.298108188435    -2.359329752050    -4.155514603175
H     -0.063552711312    -1.534013635577    -4.165248085114
O     -0.924710257152     0.396852526294    -2.676168752138
H     -1.629251745544    -0.508048635218    -1.567756460528

