# STO-3G

title

0 1
C      1.521495448621     2.544963225658    -0.048820706011
C      2.730174363604     1.887477902542    -0.361316166077
C      3.885062948685     2.641322175675    -0.654464974403
C      3.839301116817     4.049608627629    -0.648726342523
C      2.631807330513     4.703101243334    -0.338567655235
C      1.472923646016     3.955514024422    -0.035956966808
H     -3.192464280806    -2.344126502054    -0.199020877719
H      2.778879973845     0.800704202670    -0.370834250105
H      4.814709938901     2.124369339253    -0.885446686299
H      4.732191811636     4.626671678796    -0.878372663467
H      2.586846279229     5.790460138796    -0.323435625197
H      0.552139577282     4.478444355214     0.214466984152
C     -0.636223604008     2.290068918895     2.368583380174
H     -0.559874963917     3.372987622314     2.379767950495
H     -1.635306457119     1.867574247445     2.374640020253
C      0.464552413653     1.467696989624     2.592780092056
H      0.335472069848     0.401926825916     2.707730922877
C      1.811564588717     1.962590530354     2.932896985678
O      2.751499094481     1.136152843970     3.065092583783
O      2.029028705110     3.347052203808     3.063158289675
C      3.394296554434     3.748279315352     3.241202328472
H      3.446068656835     4.854899699466     3.319653878939
H      3.817920831261     3.310093959043     4.173282046836
H      4.012609827709     3.433592910276     2.369615037530
Pd    -0.138475541125     1.504096378560     0.307395159129
C     -1.013371993166    -1.635384682790     2.225485624296
O     -0.092246492740    -1.429949450400     1.287588050055
O     -0.775958011028    -1.514772114080     3.447728305737
C     -2.471488036388    -2.033369502094     1.813185369142
H     -3.109186275261    -1.519304077990     2.542629426340
C     -2.689873821771    -3.525768039013     1.954716863018
H     -3.756084169444    -3.767616365669     1.764293818788
H     -2.059653965807    -4.060895402626     1.214566797155
H     -2.422894171892    -3.859762534224     2.979228109154
N     -2.874586902130    -1.640407319781     0.455723206905
C     -2.739100061389    -0.387657478626    -0.004419049930
O     -2.196725397442     0.548849788122     0.650505991223
C     -3.322775988422    -0.105403826713    -1.331344196651
H     -3.099135148300     0.938122259306    -1.610730887598
H     -2.878421773299    -0.806182631736    -2.058363380012
H     -4.412263879039    -0.268145029778    -1.264703145275
N     -0.073427724435     0.915724935799    -1.689481318096
C      0.080043356024     1.844810969696    -2.684341295534
C      0.179209843734     1.444198067086    -3.998853031527
C      0.139184849778     0.109995379378    -4.330343364529
C     -0.011617214943    -0.805966961352    -3.325331596629
C     -0.108386684345    -0.375630219035    -1.979975348922
H      0.103944321959     2.900506936412    -2.442063480516
H      0.299742152201     2.186252334039    -4.771045644650
H      0.223509926207    -0.209120744392    -5.365826337460
H     -0.047417353338    -1.859698950953    -3.519016917299
O     -0.259452413798    -1.327660629563    -1.122277290892
H     -0.236279163244    -1.375921903818     0.203019478886

