# STO-3G

title

0 1
C      1.565581838494     2.251260384121    -1.308146507461
C      2.843638926421     1.694727552814    -1.110393669366
C      3.877204369551     2.009172310388    -2.019306375382
C      3.639724500623     2.879230239636    -3.100404723392
C      2.361948953667     3.446794903991    -3.272265697297
C      1.317597775639     3.136933664029    -2.375693763129
H     -0.602110689046    -2.129029696315     1.039804599059
H      3.044006236686     1.037789850563    -0.267469037316
H      4.865309218008     1.578654285875    -1.870641597613
H      4.442237132266     3.121696945582    -3.793085918145
H      2.175413254546     4.135221188811    -4.094216170942
H      0.337569224454     3.590079462338    -2.509269863859
C      1.073205042824     2.366553136456     1.835479800696
H      0.387858456448     1.930580411810     2.555890593858
H      2.053998777848     1.908345287261     1.778934920564
C      0.774768064412     3.552352103755     1.167181709850
H      1.531432293473     4.037918029346     0.571119272731
C     -0.455543355522     4.336298675123     1.370837438261
O     -0.586930426768     5.413633429185     0.734652840905
O     -1.558802294729     3.711402977512     1.971145794162
C     -2.760230471468     4.489818818589     2.053721180158
H     -3.548208022747     3.891412775481     2.560955880801
H     -2.592006256747     5.416407613636     2.647887521138
H     -3.129826240477     4.759607827283     1.038594792399
Pd     0.084351973474     1.747733862822    -0.089467257833
C     -0.451636340886    -0.346115438331     3.700753120735
O     -1.115519266931     0.536861505388     2.904123202339
O     -0.118172672281    -0.038366899259     4.852831532241
C     -0.223553329799    -1.762247176350     3.088004865984
H     -1.186984476943    -2.283827759377     3.180754529432
C      0.818333988504    -2.560417000567     3.845107372687
H      0.943823859689    -3.556904295547     3.373533744460
H      1.789832818684    -2.024445133465     3.826399269706
H      0.503592205433    -2.697447003965     4.900585774368
N      0.116464805240    -1.777093430705     1.660583866755
C      1.244593799979    -1.259372102601     1.100758481816
O      2.086760781898    -0.540702171313     1.690060316742
C      1.492657642870    -1.675636542439    -0.296960052883
H      1.531497435173    -2.778355571049    -0.311002016567
H      0.664310106095    -1.320459809912    -0.926076018938
H      2.456175545788    -1.263557905984    -0.641793556041
N     -0.940688415657     0.628931095665    -1.499176346321
C     -0.894663785837     0.434749847694    -2.850850834557
C     -1.855496215038    -0.348060077722    -3.459166840324
C     -2.864742672596    -0.932023208549    -2.719341794133
C     -2.891838848453    -0.722701737988    -1.364157457804
C     -1.893832602144     0.078734768159    -0.767505882118
H     -0.104564243541     0.884709863139    -3.440051293248
H     -1.814582486696    -0.501579337742    -4.525279140198
H     -3.620762838619    -1.546983518369    -3.200471247166
H     -3.643091333669    -1.149708059395    -0.731106177263
O     -1.926239088366     0.254764551573     0.511031575653
H     -1.408154056525     0.287168945641     1.966061697393

