# STO-3G

title

0 1
C      1.820477662029     3.013958958751    -0.389430685075
C      3.038649936680     2.738415671207     0.265533066835
C      3.893512118653     3.801080165832     0.625167531491
C      3.537636682544     5.131703879696     0.330187064289
C      2.320043470179     5.398339172631    -0.324326638929
C      1.455893989047     4.342014037884    -0.685106619878
H     -2.564333623809    -0.183583430796     0.986203634556
H      3.318844703487     1.715517660033     0.510017147709
H      4.828343821773     3.584804974417     1.138411394151
H      4.197917521596     5.949156543809     0.609812143600
H      2.034796830144     6.423238749693    -0.552663037660
H      0.517358835617     4.564694621908    -1.187812767726
C     -1.171036288696     1.995927975771     0.141733378669
H     -1.333229916006     3.065493455606     0.212959934013
H     -1.848308925571     1.438683943305    -0.503219600210
C     -0.362593226589     1.311964162559     1.051673528567
H     -0.362788898230     0.230918363743     1.052898725913
C      0.323751089069     1.932372587721     2.195572872768
O      1.222431770248     1.263754519196     2.775450449691
O      0.227547168390     3.325632198886     2.373160523344
C      1.071383875057     3.887663556752     3.386287132130
H      0.898658881719     4.983390906021     3.440352161658
H      0.839598823214     3.445559169851     4.381663327839
H      2.144552773334     3.718784696719     3.142500533042
Pd     0.683237006395     1.503600605448    -0.984123890522
C     -2.069447202939    -2.338097416017    -0.275258704851
O     -1.769425827484    -1.099168308528    -0.742951462348
O     -1.733453860914    -3.412310883391    -0.797997713814
C     -2.910844820833    -2.240433039339     1.026003177772
H     -2.599409020487    -3.078569788540     1.657894206304
C     -4.392124147099    -2.373814641100     0.744093202791
H     -4.955705963313    -2.351116126975     1.699031735615
H     -4.723010525856    -1.518441523863     0.118813610947
H     -4.602224417927    -3.327333518985     0.216291417153
N     -2.679604369887    -0.939506521399     1.657503769514
C     -2.394759545020    -0.601097218372     2.940595209185
O     -2.063691212952     0.567547531281     3.270375371932
C     -2.480053403273    -1.657325149595     3.971927595526
H     -3.495340899216    -2.085545227043     3.943313027933
H     -1.705921089562    -2.411226942340     3.758096965947
H     -2.289511826987    -1.197489673626     4.958891831614
N      1.852005539010     0.840127730617    -2.572960246747
C      3.036274016680     1.065056788263    -3.212416166838
C      3.416938371874     0.230847334093    -4.247574707553
C      2.612665961690    -0.823823941062    -4.640440320267
C      1.423318943487    -1.026392784144    -3.984336328277
C      1.069474418921    -0.154643832744    -2.935059812202
H      3.670876327241     1.888918062991    -2.905949724561
H      4.353717683108     0.407610846265    -4.750261396458
H      2.915495576729    -1.478777423844    -5.453165585487
H      0.752968769028    -1.823064549488    -4.236777510123
O     -0.053448814062    -0.318520789180    -2.300891238456
H     -1.087603843414    -0.990790579125    -1.507132337535

