# STO-3G

title

0 1
C      1.300851939861     2.232836066852     0.034220413001
C      2.465085677814     3.023296373231     0.115447590732
C      2.362804355388     4.426266881066     0.003986187806
C      1.108855299213     5.036124626283    -0.193329506963
C     -0.047417025672     4.237723462314    -0.285924796763
C      0.045006352249     2.834433064780    -0.175689285206
H     -2.964553053393     0.518711975203    -0.338153898509
H      3.440963858461     2.565882013904     0.268509364389
H      3.262376776836     5.034700705501     0.072361568944
H      1.033983188112     6.117714487415    -0.276930005101
H     -1.019032838790     4.700747420865    -0.446787319370
H     -0.847912303007     2.221817972694    -0.272406672751
C      0.370244269868    -0.073781378214     2.030903777845
H     -0.355857379079     0.705802403339     2.223799091100
H     -0.034534586698    -1.058266196954     1.811666790621
C      1.723706580258     0.080952516539     2.324793748117
H      2.379124276865    -0.780708965021     2.282663067883
C      2.301424644066     1.278277856817     2.959625770365
O      3.552150016139     1.349105950860     3.079059669266
O      1.469569254162     2.363431274887     3.284118118474
C      2.127871873488     3.535033434212     3.784186059476
H      1.368966341261     4.317786902288     3.999229042108
H      2.675286937520     3.310312728979     4.727423965344
H      2.837564100769     3.942365019588     3.029204611165
Pd     1.430471837478     0.255508788818     0.067949249859
C     -1.567352779327    -1.612316755176    -0.422983583938
O     -0.643333905659    -2.472248408752     0.052334088551
O     -1.482518265178    -0.986513895787    -1.504210816884
C     -2.731824534732    -1.366950744051     0.555716581898
H     -2.459645388725    -1.699527573746     1.559003456818
C     -4.007827671666    -2.055623723395     0.125612566974
H     -4.806614585746    -1.844967752957     0.866594687768
H     -4.325632695553    -1.660359279726    -0.861724986039
H     -3.849851424240    -3.151636138905     0.059148785769
N     -2.972170584547     0.078393543155     0.576268137083
C     -2.943361759782     0.790623663332     1.733821178670
O     -2.722710457691     0.298842293843     2.867111399272
C     -3.180780206417     2.247003164305     1.625212861387
H     -4.049454836953     2.485319621161     2.261494178865
H     -2.280609545820     2.760526748859     2.002795663762
H     -3.386957757584     2.537172768893     0.580092351352
N      1.850826709869     0.030821078108    -1.938438076236
C      2.051889326381     0.772592872469    -3.065972125595
C      2.273771673261     0.129437405849    -4.269583649206
C      2.280935619074    -1.251339226161    -4.342909509015
C      2.068541378282    -1.974185466444    -3.194585747579
C      1.845647511940    -1.282028834404    -1.986665747867
H      2.044669072322     1.855369343700    -3.012348086442
H      2.432604509784     0.715711646273    -5.159521528384
H      2.448841009847    -1.754638239068    -5.291297996653
H      2.053813949786    -3.044523859890    -3.182469962284
O      1.616695102778    -1.953235056333    -0.886046498648
H      0.269453626183    -2.424040251984    -0.441788054438

