# STO-3G

title

0 1
C     -0.862576953777     2.620419102955    -1.350177253406
C     -0.281134291641     3.413326109608    -2.358725078813
C     -1.118103140436     4.099793687950    -3.263542964483
C     -2.518827967028     3.995359848236    -3.157568052460
C     -3.085163333444     3.212751416211    -2.133639700662
C     -2.260330464249     2.525606600946    -1.216643333187
H     -0.025982323948    -1.513692694964     1.281358873829
H      0.799222002684     3.511041813960    -2.440647599955
H     -0.672955417766     4.718873935970    -4.039780695553
H     -3.160244827466     4.527061658071    -3.856234707726
H     -4.165983205226     3.139174577178    -2.034898252893
H     -2.714913934140     1.945220391755    -0.417836330825
C     -0.425778379479     2.392943587947     1.827621940069
H      0.127822241621     1.753995727551     2.507186553157
H     -1.502480263441     2.262884480403     1.820135089886
C      0.192712426499     3.471413330306     1.197871923855
H     -0.405039365367     4.194091068476     0.666231222467
C      1.611920284817     3.827405596481     1.358508727522
O      2.025077594996     4.887412076996     0.822576970493
O      2.504883733172     2.812757432501     1.731071427804
C      3.887363799437     3.184366618137     1.811590880080
H      4.482645807564     2.303972897090     2.139276165782
H      4.270325990668     3.513240041711     0.819047714003
H      4.036082514831     3.997968987906     2.557243883158
Pd     0.305816582935     1.580020373777    -0.128032862952
C      0.698900093233    -0.339101323082     3.848752465130
O      1.593744766103     0.121296339822     2.928386328574
O      0.817241735228    -0.061497975795     5.050008779291
C     -0.495336198324    -1.208701504579     3.345543023590
H     -1.381563639535    -0.814130284134     3.853449560198
C     -0.319381826972    -2.659479993693     3.741075490933
H     -1.223469625777    -3.235106813859     3.453048754023
H      0.557849319840    -3.083491763697     3.210962246665
H     -0.170827493057    -2.746330732645     4.837892706063
N     -0.751442745169    -1.172961668731     1.908552835642
C     -1.871835390821    -0.611913201992     1.377458973988
O     -2.688786437900     0.109536563576     1.999982166668
C     -2.139293953937    -0.955410172182    -0.035510584444
H     -3.106585350325    -0.516497754690    -0.336107918573
H     -1.321287458753    -0.570310324626    -0.659374815959
H     -2.188173418338    -2.056143508436    -0.110964569859
N      0.969798115886     0.258927420359    -1.581491162828
C      0.946481141261     0.164191962352    -2.944424646289
C      1.633544456282    -0.858687836883    -3.567897656658
C      2.341466704277    -1.787480055969    -2.830487263318
C      2.345136146209    -1.676159393869    -1.463356412193
C      1.633125036304    -0.620005295146    -0.855330538591
H      0.390802051119     0.885279112684    -3.531911874300
H      1.613521367577    -0.930214587810    -4.643199345345
H      2.880335619553    -2.592818810939    -3.322696519443
H      2.864101509303    -2.367366674921    -0.830656348964
O      1.621387903342    -0.540408651788     0.436782660997
H      1.554763795698    -0.174165606214     1.966560900052

