# STO-3G

title

0 1
C      1.120586750099     2.766730625809    -0.586831596202
C      2.126317130407     2.567555604300     0.378650340063
C      3.159827211179     3.519671148498     0.504025135571
C      3.190217631368     4.656818036532    -0.326931052703
C      2.179028670667     4.844959890739    -1.288989856325
C      1.138571637686     3.900574866855    -1.422901738181
H      1.766478558358    -1.559007097634     3.937588783384
H      2.106785593681     1.689279379432     1.018010828114
H      3.936283341211     3.370337517373     1.251991690486
H      3.988512073446     5.388555432814    -0.223875768894
H      2.192131352121     5.722682410176    -1.932688447177
H      0.361821946752     4.055813567680    -2.169545194604
C     -1.448245282305     1.756743002823     0.998933492314
H     -2.021997510765     0.835278592117     1.093461700803
H     -0.714959177823     1.927111715805     1.778901837109
C     -1.797741159194     2.741949310668     0.074207507456
H     -1.297045914438     3.697251829875     0.107026057365
C     -2.972074738301     2.677809619939    -0.812656344555
O     -3.147231017584     3.605981880508    -1.643688924512
O     -3.738379642929     1.501583956977    -0.856213539334
C     -4.777887321368     1.462420782814    -1.843607160322
H     -5.310493348625     0.489036491611    -1.776906792108
H     -5.517641251729     2.277338245499    -1.673961864593
H     -4.353068702588     1.552938084160    -2.869163657210
Pd    -0.238271006115     1.344580982042    -0.826050684828
C     -0.066297179112    -1.273257422630     1.489953158781
O     -1.210537423331    -1.549035528716     0.834585282315
O      0.970435135051    -0.829727471282     0.950855900301
C     -0.117899583162    -1.600558892365     3.006268786321
H      0.019406337773    -2.687057975708     3.094945624999
C     -1.429374782165    -1.245270190281     3.680672133156
H     -1.360361500069    -1.476281028736     4.763753098858
H     -1.646792789210    -0.165811688348     3.561638347285
H     -2.260343572074    -1.834143218903     3.240744440905
N      0.989142884184    -0.954397454959     3.709240032790
C      1.186488349698     0.390953009612     3.753527036609
O      0.384223301018     1.254797018434     3.332775591222
C      2.458964065739     0.823758434253     4.369000299661
H      2.494849029756     1.927206021553     4.371397429568
H      2.483607385998     0.431019729569     5.399017829337
H      3.288086371215     0.409960372450     3.769289441232
N      0.808046493658     0.244950169628    -2.239729554057
C      1.964443188779     0.277952903090    -2.963103649761
C      2.286180839750    -0.793661920335    -3.775870020106
C      1.455575643930    -1.896314962313    -3.853519654225
C      0.302389968297    -1.907159660635    -3.107603150274
C      0.010788891670    -0.795420482311    -2.289726450459
H      2.617592583837     1.141204663851    -2.903547010235
H      3.198896949791    -0.766203239057    -4.347774787667
H      1.712028834574    -2.739095809566    -4.489790135403
H     -0.381746964564    -2.730456499252    -3.115314765247
O     -1.073125990096    -0.800921120010    -1.552989488108
H     -1.176284269583    -1.320897502246    -0.185571317423

