# STO-3G

title

0 1
C      1.073563380118     2.650685924078     0.084638188018
C      2.430282484590     2.271185055711     0.015840397338
C      3.417607068194     3.255935825534    -0.194347944291
C      3.058548492405     4.610397350981    -0.342379662120
C      1.702346300715     4.980665334564    -0.278418504389
C      0.705007914566     4.003316880740    -0.067066450149
H     -0.744652516446    -3.418319387302    -0.272343172471
H      2.716862230394     1.226830694656     0.121551033137
H      4.463165897443     2.958533055715    -0.243513719131
H      3.825549508786     5.364179859253    -0.504988728562
H      1.414907272087     6.024406325584    -0.389805636621
H     -0.336728329570     4.314345108008    -0.010148585832
C      0.258154870841     0.983919022671     2.547473600172
H      1.262578357749     1.359737458315     2.708224014792
H      0.140318721793    -0.088601023912     2.614309983271
C     -0.865112821485     1.803233254065     2.483731561282
H     -1.844979191817     1.348165870361     2.429154702849
C     -0.852149406775     3.252819827470     2.737882439290
O     -1.883207443221     3.920450047481     2.462936130128
O      0.331198132599     3.875266523795     3.169793072369
C      0.274088222160     5.299193697454     3.329822757188
H      1.265624377301     5.668865909923     3.669729442623
H      0.033935615151     5.797348115843     2.363777074757
H     -0.484908773104     5.582043086215     4.093867905955
Pd    -0.260418010155     1.197887031003     0.357448420160
C      1.363933512414    -1.940008148212     1.540163815359
O      1.602210821723    -1.216823965969     0.449522403994
O      2.102772567981    -1.937526562035     2.547611674025
C      0.019115712888    -2.761077321576     1.619461433052
H     -0.527973479306    -2.316705763109     2.460439783890
C      0.268790722707    -4.219026133836     1.941738568555
H     -0.700415927152    -4.746973626369     2.058998410962
H      0.836024830599    -4.688967908167     1.112497107088
H      0.847107994625    -4.314454497910     2.884422805736
N     -0.848313206307    -2.705873745666     0.440681931405
C     -1.623771702560    -1.648953339905     0.146549796668
O     -1.641624634277    -0.570216339532     0.813196177658
C     -2.556921831759    -1.811469872501    -0.985427074913
H     -3.244905872304    -2.636263817862    -0.735020996310
H     -3.112476332858    -0.869526052246    -1.131387028458
H     -1.975851988468    -2.063575489636    -1.889573910700
N     -0.367668701994     1.021381202746    -1.717484301527
C     -0.850998901099     2.064597060543    -2.460401766197
C     -0.948864792650     1.953830833733    -3.830683942559
C     -0.551766864071     0.802348497203    -4.470688653594
C     -0.064168579905    -0.227916707710    -3.713326876052
C      0.034760808574    -0.088302185212    -2.308611863322
H     -1.182519873285     2.970916897715    -1.969571185853
H     -1.335029225171     2.781013205374    -4.403391217089
H     -0.623175226703     0.713111802079    -5.551450729528
H      0.269353043222    -1.147113016557    -4.151993923412
O      0.512353371710    -1.120048074551    -1.692960082489
H      1.023180576041    -1.196704967789    -0.496515476569

