# STO-3G

title

0 1
C      1.229012262196     2.920715098466    -0.200026556293
C      2.623033779593     2.890063038802     0.011263020365
C      3.369519959713     4.084723316107    -0.055312322068
C      2.733780928444     5.308416070358    -0.343893343880
C      1.344405071008     5.333017264965    -0.568798288695
C      0.589572657729     4.142099655821    -0.501837353268
H     -2.303371101745    -2.957600192153     1.636037615117
H      3.128220520435     1.948401634697     0.214142075264
H      4.444388563299     4.053528936934     0.112218518689
H      3.313858055068     6.226937892162    -0.395170364419
H      0.844467985478     6.272528239117    -0.796069807598
H     -0.482774681649     4.180456119060    -0.683955836098
C      0.245683482309     1.272733480867     2.104119525189
H      0.976775017098     2.012175129451     2.412295464627
H      0.501795114559     0.232224024469     2.285786964117
C     -1.053488329270     1.630932138492     1.751386824529
H     -1.784534108682     0.853017630928     1.573103373600
C     -1.598092828215     2.995454563403     1.834265589387
O     -2.698367634683     3.232748185430     1.271720106050
O     -0.810887600882     4.030055037494     2.366613940722
C     -1.395103793229     5.339870727094     2.352674627722
H     -0.680408902740     6.063981852035     2.800466331123
H     -1.610692101854     5.667909666450     1.310949774828
H     -2.333843998022     5.361512164639     2.951345341026
Pd     0.181203805164     1.232451568694    -0.154348083846
C     -1.196099394517    -1.925395220965    -0.587407621794
O     -1.388867722296    -0.533911785553    -0.387292530461
O     -1.728935389974    -2.480120577711    -1.552559430447
C     -0.480226996205    -2.562843806899     0.603046420715
H      0.403532495142    -1.967153545094     0.830378041674
C     -0.059621930792    -3.989127474542     0.329623165207
H      0.466331663407    -4.395213448588     1.217772040950
H     -0.956108136081    -4.608815628748     0.124745500759
H      0.624321286278    -4.020999026612    -0.544153210533
N     -1.382718264555    -2.556066155935     1.761172462593
C     -1.005789052108    -2.068928414307     2.972071317892
O      0.098198945015    -1.529928786877     3.215279751413
C     -2.012620104644    -2.189487950537     4.046400827521
H     -1.596967418378    -1.754403610933     4.972126831230
H     -2.914412049842    -1.641513483181     3.727738349452
H     -2.234513820517    -3.261428614838     4.187997609733
N      0.828517988141     0.826847412688    -2.060284187843
C      0.950855197627     1.700043582505    -3.106157858726
C      1.500233069494     1.277932969138    -4.297324243760
C      1.941809596815    -0.017424998440    -4.451945757831
C      1.835052980396    -0.878440677230    -3.393445107528
C      1.280297063813    -0.434246800252    -2.168182276024
H      0.592457784142     2.717599974778    -3.009170258663
H      1.582844544682     1.972689942935    -5.116786676535
H      2.371917550206    -0.348360572336    -5.393484427626
H      2.169606399123    -1.894724168160    -3.448280310836
O      1.233372007286    -1.272090818137    -1.208890912407
H     -1.871777269767    -0.173289773123    -1.164707183420

