# STO-3G

title

0 1
C      0.894841461274     2.831483787566     0.099495145687
C      1.770613374553     2.522524244912     1.155654384244
C      2.694797797760     3.503676726501     1.577921904012
C      2.743609897165     4.764444213952     0.952220332687
C      1.864392035146     5.052483342252    -0.109759642862
C      0.933900026763     4.084596446576    -0.544157464164
H     -1.197338148582    -2.720299001678     2.323079932137
H      1.744824213394     1.544480224903     1.627845585784
H      3.374467398062     3.273218273725     2.395902756358
H      3.459130311228     5.512498454816     1.286010407706
H      1.896137170154     6.022622348405    -0.601736231184
H      0.257286146116     4.316655113154    -1.364993325164
C     -1.587974914170     1.227171716421     1.226670666290
H     -0.956080541663     1.436292867543     2.082473635021
H     -1.886194195338     0.189862418648     1.101831867657
C     -2.199797794842     2.228460538452     0.470310869580
H     -2.923208794629     1.952303680823    -0.287297314656
C     -2.141105530819     3.664582614881     0.792159656430
O     -2.609544838512     4.485652009953    -0.038152229787
O     -1.472750020818     4.090545497758     1.952232203180
C     -1.325268428052     5.508208654577     2.109354915830
H     -0.776863984850     5.717141998012     3.053016994025
H     -0.736629196814     5.939432910915     1.268326165736
H     -2.319054508259     6.007516737467     2.163605985651
Pd    -0.349181770720     1.459513323401    -0.615579011795
C     -2.135626183853    -2.479326659009     0.060698694749
O     -2.614411778542    -1.972818263408    -1.087402284190
O     -2.822850760328    -3.145975390052     0.860287892940
C     -0.641135047883    -2.173683566270     0.384236578162
H     -0.333953574250    -1.208540730733    -0.022565111953
C      0.285797406781    -3.241204063534    -0.156488533471
H      1.336417002891    -2.975056569660     0.083305969572
H      0.045773957080    -4.212004310263     0.326214098354
H      0.174150644896    -3.330559098076    -1.256553830769
N     -0.516089266051    -2.142161237275     1.837719641651
C      0.312893874984    -1.292677438316     2.479508678798
O      1.070402528049    -0.460219924330     1.917132334830
C      0.273271081095    -1.364841474598     3.952968594571
H      0.978944859248    -0.623756306939     4.367046380330
H     -0.758659648027    -1.146782228339     4.275735548499
H      0.563509009501    -2.387168929111     4.252190335836
N      0.901902965130     0.738608979207    -2.110625663107
C      2.181943156767     0.848269333008    -2.570677330769
C      2.626192361631    -0.024619689906    -3.547050317144
C      1.791091411294    -1.000763651934    -4.059168968572
C      0.508453583236    -1.092510104472    -3.574811200910
C      0.094032273693    -0.183924772471    -2.580345581006
H      2.839392414803     1.612511929961    -2.171552929235
H      3.637447104940     0.062121252087    -3.910077937582
H      2.143589720860    -1.682974919137    -4.828434616177
H     -0.188436252747    -1.822988077800    -3.933006122218
O     -1.110629519722    -0.267552048807    -2.081653944722
H     -1.978399116580    -1.327134883613    -1.595054717224

