# STO-3G

title

0 1
C     -0.937997568376     2.252708070431    -0.889091562020
C     -1.189464297120     3.626025963975    -1.079619507910
C     -2.398167572439     4.035742133494    -1.682233996408
C     -3.351665661311     3.085141577142    -2.092760187927
C     -3.087600777664     1.713740480160    -1.913340001544
C     -1.877804812541     1.294094038221    -1.322301346119
H     -1.221999713087    -1.602112257452     1.077929617310
H     -0.464881658438     4.379802302286    -0.779323302389
H     -2.587812741642     5.097866476407    -1.824201337512
H     -4.283793923524     3.408647957346    -2.549726031847
H     -3.813669278532     0.970710817054    -2.237249920798
H     -1.666680619089     0.232112112827    -1.219665149414
C      0.593638076883     1.666831237834     2.067735102958
H      1.518274268063     1.172166522664     2.359440701987
H     -0.325539883059     1.161058856854     2.335700810598
C      0.563222198979     2.985225082250     1.627070416579
H     -0.392585933355     3.467402496317     1.499715589155
C      1.738181279714     3.867347086081     1.531430982417
O      1.570020401916     5.035919223114     1.097206148389
O      3.019623410633     3.301496390963     1.618911754498
C      4.120722206551     4.196518674600     1.409134645350
H      5.074499056493     3.635166629760     1.516292401000
H      4.089526613604     4.631972966449     0.384570589348
H      4.114205474125     5.016860548831     2.162301581396
Pd     0.780103013864     1.548134234350    -0.170841413761
C      1.107640073910    -1.496187046178     2.396999718235
O      1.074180588252    -1.361755232760     1.042367598255
O      2.117487392451    -1.340632651526     3.103120469458
C     -0.293053031545    -1.836052373204     2.950932246107
H     -0.401575528551    -1.331738524602     3.915669376311
C     -0.477250545553    -3.324462027038     3.152088348978
H     -1.473403654693    -3.514886491748     3.602637799834
H     -0.426566971031    -3.838273334579     2.170275345363
H      0.309178177270    -3.722830992318     3.826283075301
N     -1.351685850733    -1.367020241549     2.056017584073
C     -2.234209454047    -0.406076752243     2.444885704719
O     -2.190712281254     0.199872679631     3.543405715807
C     -3.314898223662    -0.072030633701     1.492839818505
H     -3.209196118122     0.991539266283     1.220805286936
H     -3.256637248930    -0.717045523636     0.600557253201
H     -4.275877632159    -0.236019909215     2.010095693768
N      1.342760405119     0.753983174415    -1.987901016384
C      1.015635275765     0.859981620891    -3.309298632509
C      1.802214117097     0.230352098597    -4.255168361608
C      2.912912686112    -0.501633685325    -3.879056019838
C      3.223062988360    -0.589724318345    -2.544639061413
C      2.400096301580     0.066256187462    -1.605676558839
H      0.145247542575     1.431676920217    -3.610671553826
H      1.541974529355     0.313385514858    -5.297736607518
H      3.529928165307    -0.995470682691    -4.625134576049
H      4.072489725898    -1.134136047888    -2.184417965699
O      2.691487565257    -0.004743417022    -0.336318905935
H      1.881539723490    -0.921972308617     0.579668519963

