# STO-3G

title

0 1
C      0.319120316787     2.500040162639    -0.956165454749
C      1.193903641030     2.756731020602     0.117498582077
C      1.704820862651     4.059742351195     0.297300361568
C      1.353071543496     5.093187365132    -0.592507582621
C      0.490324209957     4.820954848401    -1.671708550371
C     -0.029709472215     3.522531995704    -1.860260992421
H      0.761127519337     0.057034608468     2.557275722209
H      1.496301042106     1.953977607978     0.785955262224
H      2.380486715127     4.259418419473     1.126633185533
H      1.750506643393     6.095311619150    -0.449852327224
H      0.217699770493     5.611743577160    -2.367865208974
H     -0.696811650894     3.326192654406    -2.697521651367
C     -1.686046833745     0.397745003942     0.470639026224
H     -1.306603003683     0.923475582859     1.341182085189
H     -1.665117801362    -0.687627153522     0.514857453008
C     -2.421364526359     1.026667639674    -0.534359544923
H     -2.914339374388     0.422236339606    -1.285220264320
C     -2.823515378305     2.443387995179    -0.507439948540
O     -3.424045855529     2.917163125956    -1.506795089833
O     -2.474957871576     3.246057138942     0.591895003034
C     -2.782588352766     4.641670477150     0.474438797593
H     -2.453770652458     5.168314122138     1.396046846602
H     -2.244080987881     5.093110707063    -0.389248186870
H     -3.878385757708     4.798305258525     0.353829829636
Pd    -0.271801643398     0.628727086861    -1.238131187816
C      0.588302694306    -1.764009238288     1.123279841912
O      0.060948634164    -2.666318047220     0.287439594234
O      1.227494933889    -0.748357951448     0.737202664548
C      0.309225477652    -1.972243202472     2.627754965470
H      1.043742293161    -2.684754422682     3.033058206939
C     -1.083204090128    -2.498052926053     2.926884931957
H     -1.165150692818    -2.746744003124     4.005007485613
H     -1.838475280352    -1.722597146735     2.694935487617
H     -1.290200326149    -3.418738761087     2.343843097491
N      0.467190835829    -0.646252421450     3.232581330039
C      0.573026559342    -0.459996094896     4.574475051829
O      0.458715277914    -1.367694409209     5.430469413036
C      0.818079829271     0.927115783638     5.030485628854
H      1.774326378357     0.929169970426     5.579122274245
H      0.863763597286     1.616647171060     4.170955785482
H     -0.009905705361     1.209488001044     5.702746838978
N      1.244256938860     0.144918409465    -2.558698973968
C      2.306505330184     0.719456566202    -3.194423986640
C      3.158869071417    -0.073003173480    -3.940991964385
C      2.950337800179    -1.435989047746    -4.042369745637
C      1.877764751938    -1.989493326540    -3.386841756360
C      1.030846698593    -1.147709009829    -2.636354830306
H      2.474145710219     1.787647736243    -3.115454844321
H      3.997149324176     0.381505333090    -4.442923434917
H      3.623410328938    -2.057274651168    -4.627235129382
H      1.661068234846    -3.037481481272    -3.421282086263
O      0.015677663075    -1.663058080099    -1.986658518823
H      0.112456081075    -2.369968487618    -0.720373488421

