# STO-3G

title

0 1
C      0.298496470555     2.648544529144    -0.756991714673
C      0.954102307215     3.022116432098     0.432844803539
C      1.474012874712     4.330286658199     0.544586022607
C      1.336602955486     5.251711456728    -0.511255334544
C      0.675369180475     4.865594063754    -1.693492981589
C      0.155065332734     3.560605119251    -1.822369201777
H     -0.660340748234    -1.938197000728     3.194139654957
H      1.066723405009     2.330732257646     1.265434872427
H      1.980133086860     4.619735828651     1.463132285852
H      1.738589787812     6.257571026652    -0.413200504149
H      0.561904651417     5.571595031969    -2.513935435558
H     -0.354946544412     3.270850718683    -2.739185145122
C     -1.610363085908     0.789708037023     0.843404869182
H     -1.173251045102     1.499399620679     1.535935642029
H     -1.485993980800    -0.263112689765     1.086035161285
C     -2.451836503077     1.191815037494    -0.194713591154
H     -2.959676603033     0.443185868595    -0.791044549466
C     -2.904009252016     2.577757858286    -0.407078824397
O     -3.541284584801     2.848748242261    -1.457386262634
O     -2.535899183898     3.576496369978     0.509514875799
C     -2.838345215994     4.924860867351     0.127203642937
H     -2.489892193373     5.617806712869     0.923121581218
H     -2.311077261485     5.194573039121    -0.815838162935
H     -3.935107676378     5.064705373229    -0.004520979038
Pd    -0.365477242885     0.794423420265    -1.003137950242
C      1.180949223485    -2.031946133921     1.047559189404
O     -0.122588667379    -2.050579978444     0.653923380751
O      2.152285558673    -2.219417673674     0.293105610701
C      1.344713785627    -1.730921562817     2.553055334284
H      2.077963900699    -0.920547497147     2.626381763045
C      1.869169092917    -2.928752455985     3.315495058939
H      2.038542796302    -2.647019639619     4.375468925762
H      1.120826441294    -3.746521256715     3.279452616261
H      2.826682801520    -3.278072267230     2.875899283758
N      0.116253680128    -1.288120081780     3.202654329341
C     -0.073426775766     0.015160529043     3.542736433782
O      0.708046414767     0.951221202286     3.243729263081
C     -1.275388901554     0.319889419991     4.352869565017
H     -1.893906982727     1.045728910948     3.801800222785
H     -1.847988418195    -0.600907698664     4.557052311056
H     -0.930893770119     0.763274827157     5.302973992264
N      1.059162284329     0.150336046135    -2.353520421403
C      2.164211331159     0.585360035995    -3.026145336130
C      2.843415430560    -0.290266547797    -3.852400268782
C      2.423587342928    -1.600411092681    -3.992415235747
C      1.311052174145    -2.013848212103    -3.301887135833
C      0.646955615933    -1.092777895983    -2.467555670517
H      2.498321144198     1.610795664894    -2.916115811270
H      3.717118269117     0.053000165460    -4.381322778325
H      2.965468477651    -2.290292353372    -4.633762310350
H      0.941564396962    -3.017375606601    -3.352690925743
O     -0.398355649899    -1.478221717266    -1.774853648767
H     -0.242648475107    -1.997968366692    -0.375580509573

