# STO-3G

title

0 1
C      1.280837379695     3.215920938011    -0.259378659335
C      2.456937420624     3.782688062933     0.269583536461
C      2.535643750542     5.180098384797     0.453168618567
C      1.447184481722     6.006463057074     0.114840603692
C      0.273462329331     5.432130108254    -0.411193952901
C      0.186464267817     4.037304181588    -0.601712783923
H     -2.242546269685    -2.467658283639     0.764899494783
H      3.306608601108     3.158248388499     0.536469246210
H      3.445337605752     5.614306903206     0.862911123023
H      1.511642893821     7.082009932021     0.261513839195
H     -0.575830998705     6.061465606756    -0.669793008046
H     -0.729265792665     3.604114606623    -0.999918637998
C      1.499236086362     0.529665187134     1.446640101489
H      2.155245455094     1.188380401348     2.005298629732
H      1.904007328675    -0.444766115949     1.183528410087
C      0.131525000743     0.787112120470     1.333391278501
H     -0.517862659163     0.036390010382     0.905688252866
C     -0.559083068424     1.914624726559     1.981126213078
O     -1.728116300411     2.190035365416     1.599388813820
O      0.187630636435     2.821022098365     2.755301839931
C     -0.508913787209     3.995002396675     3.193221387990
H      0.178191439248     4.624773890380     3.797637302620
H     -0.851474776157     4.597699500294     2.321844849692
H     -1.383277260063     3.722521879625     3.826726427635
Pd     1.176554838523     1.273581834937    -0.636755147591
C      0.461128226605    -2.659596935118     0.739378810754
O     -0.167647334297    -2.140287214294    -0.346748205883
O      1.686188826202    -2.858458094297     0.830391661847
C     -0.533415165558    -2.940533299892     1.889260338522
H     -0.092848635084    -2.535421865944     2.805929979685
C     -0.779377327770    -4.421488839952     2.078274860373
H     -1.446759547053    -4.575172018175     2.951466979094
H     -1.276503199779    -4.830076600409     1.174876883083
H      0.178777273207    -4.953142892664     2.253864886105
N     -1.821583182302    -2.292697677754     1.670381616277
C     -2.240891458439    -1.246555832026     2.435030220699
O     -1.559972338051    -0.711765494099     3.345634992505
C     -3.597804119376    -0.726105356664     2.157353697541
H     -4.172012119386    -0.786812191552     3.096324046654
H     -3.495668314261     0.324944319103     1.841586005049
H     -4.093564894044    -1.320013709593     1.369873311012
N      1.375108702712     1.355496166692    -2.703696468144
C      1.527067853630     2.229281297251    -3.740707309630
C      1.576055039520     1.743802713952    -5.034405066576
C      1.476608447856     0.387506566061    -5.286811394343
C      1.329079511595    -0.471853372620    -4.225759092016
C      1.283100243541     0.060113269275    -2.921134657694
H      1.603850182413     3.293306755177    -3.547441498032
H      1.693831582588     2.434740772873    -5.853128168603
H      1.517016490296     0.008975551089    -6.304803460693
H      1.253619575208    -1.533134600656    -4.349161931259
O      1.156759364424    -0.732685200582    -1.898209452661
H      0.420140261040    -1.716536673534    -1.076731517324

