# STO-3G

title

0 1
C      1.804477545133     2.653740151513    -0.373770484191
C      3.066171520279     2.119363732811    -0.041674550620
C      4.234333701111     2.853816441314    -0.335328809927
C      4.150811167812     4.106572769874    -0.973762132711
C      2.889877688793     4.622881337719    -1.327394647938
C      1.714467196103     3.900448131212    -1.029523720982
H      0.916558195859    -1.535556595583     0.863042265734
H      3.142125872275     1.128180391523     0.397566027654
H      5.205387211327     2.434812870279    -0.079265060868
H      5.055104051221     4.665568510158    -1.202866052694
H      2.814498648635     5.582531176952    -1.835117998181
H      0.750897461073     4.313097884415    -1.323020201197
C      0.107319669719     2.477240780658     2.176855316970
H     -0.406536754206     1.742006558250     2.789736213777
H      1.171324118355     2.595505159456     2.354628877596
C     -0.580180589283     3.387837272060     1.379911955640
H     -0.037805629276     4.192675039329     0.909757342698
C     -2.047653420533     3.497275052598     1.304447407085
O     -2.546704667539     4.310274820708     0.484657520000
O     -2.852153710312     2.665810993566     2.101709581951
C     -4.264928961567     2.749615170576     1.869039528288
H     -4.792637914652     2.050733318821     2.553514912952
H     -4.640154385328     3.779442375558     2.066738923721
H     -4.510323466963     2.459018136603     0.821802615673
Pd     0.150394204162     1.633210553081     0.073739999614
C     -1.869641137529    -0.707514011404    -0.165695234734
O     -1.773326416609     0.458447745783     0.604052634087
O     -2.459354705001    -0.719108199198    -1.242225144120
C     -1.117697188213    -1.928177876148     0.446289594243
H     -0.676525062012    -2.450348348788    -0.409140954418
C     -2.061164319132    -2.888693540548     1.143697036378
H     -1.486799338907    -3.763995734419     1.513016431197
H     -2.552928698984    -2.395254947963     2.005934971912
H     -2.837151706360    -3.243971949085     0.433823491391
N     -0.014514980465    -1.589695198323     1.356585250173
C     -0.133967837391    -0.950263374841     2.523320979129
O     -1.203928518021    -0.386692935735     2.945038638921
C      1.090166615322    -0.856530562230     3.335557157060
H      1.864842971473    -0.348570963590     2.733991440391
H      0.871657818043    -0.300417766057     4.263062020252
H      1.417477883140    -1.885440083359     3.567845522658
N      0.595270928193     0.413122035416    -1.536704906136
C      0.119143899672     0.747942469633    -2.774359156474
C      0.548359933517     0.061495866063    -3.889437327927
C      1.449873061982    -0.972115962295    -3.773387086938
C      1.911684935500    -1.301816924763    -2.527917709253
C      1.466656396715    -0.582789260024    -1.390383763524
H     -0.595569226398     1.556213398392    -2.875573067500
H      0.164052054104     0.333385902825    -4.858185479846
H      1.784852045899    -1.517638058402    -4.651257984715
H      2.609451685116    -2.098026747963    -2.368766992767
O      1.938570511263    -0.962907838163    -0.253769574410
H     -1.726710694443     0.228086977951     1.613796726267

