# STO-3G

title

0 1
C      0.941502824498     2.867449898412    -1.608672858136
C      1.913451506973     3.840506427761    -1.307435562632
C      1.847604473734     5.106090400434    -1.929698435841
C      0.816377034630     5.399945554250    -2.841760049295
C     -0.155379085534     4.422719390463    -3.133598295248
C     -0.095698451236     3.153736753427    -2.521160675476
H     -1.116428392256    -0.578660579827     2.211515183640
H      2.709438854155     3.633862078045    -0.595540027382
H      2.596659809799     5.857867645660    -1.689633153200
H      0.767222052630     6.379065208711    -3.312102279147
H     -0.961191540757     4.644206170907    -3.830263869265
H     -0.856497775879     2.410181915372    -2.748808291186
C      0.981261294953     1.413353856357     1.341205468103
H      1.619251450341     2.236227273058     1.645529470095
H      1.307628346833     0.414636332233     1.619332477627
C     -0.331568782249     1.625603097961     0.919707690027
H     -0.996103771030     0.786119060239     0.779857734951
C     -0.990883979945     2.942044293278     0.882488419049
O     -0.322851568715     3.974857702817     1.165284170219
O     -2.229168581302     3.038573854700     0.221932701918
C     -2.752850347954     4.365249018749     0.074023132908
H     -3.733930961698     4.318194744975    -0.444419932127
H     -2.906613691841     4.840478754162     1.069519924725
H     -2.064161225471     4.994626997073    -0.535246688746
Pd     1.055921516590     1.042116826389    -0.846835692333
C      0.471399609629    -2.475344292088     2.341045240548
O      0.134428794990    -1.802956033753     1.208923510641
O      1.365745186655    -3.328595143112     2.442713231883
C     -0.431871388278    -2.028077282904     3.525006180660
H      0.203401444962    -2.018335054087     4.417383608223
C     -1.573510156917    -2.997458253487     3.747866230759
H     -2.168841711796    -2.679172214770     4.627230397369
H     -2.233514158666    -2.994161287540     2.855201925359
H     -1.183363935728    -4.021987273672     3.921057645767
N     -0.994594760980    -0.712971041886     3.212026560690
C     -1.222312623690     0.385902887524     3.970058720104
O     -1.617194503312     1.475146157365     3.476499514967
C     -0.977201803865     0.286938141788     5.424768387006
H      0.095226373816     0.090741056685     5.582652143426
H     -1.253813196360     1.252887985468     5.883575021287
H     -1.608002098541    -0.520274983761     5.832533474238
N      1.665001156312     0.049850255601    -2.569527313741
C      1.967686107916     0.258297047764    -3.883715599307
C      2.342541851021    -0.814804693057    -4.671285930203
C      2.417217737378    -2.090624435805    -4.142039083658
C      2.113519400984    -2.273112990784    -2.815122179001
C      1.736755820877    -1.154670036342    -2.044570991542
H      1.908374977952     1.256335155701    -4.303029207034
H      2.579106485574    -0.649728318135    -5.709709510092
H      2.713860595990    -2.931660379742    -4.763216799907
H      2.160027645666    -3.231514966777    -2.338815060224
O      1.459831919944    -1.294844861589    -0.781541530758
H      0.737337586848    -1.831167706546     0.372647801208

