# STO-3G

title

0 1
C      0.945469350780     3.171821142868    -2.650293073022
C      1.360045653193     4.498119250994    -2.403797260866
C      1.391380219118     5.423402017626    -3.468792548795
C      1.040986450539     5.012032592579    -4.769507257793
C      0.654293355228     3.677681618831    -5.008870939867
C      0.617122814076     2.744763531125    -3.951650417972
H     -1.510592602757    -0.430691197555     2.368331182353
H      1.648805310060     4.820248927383    -1.401641358620
H      1.696531182050     6.450360771503    -3.280894437757
H      1.073352296212     5.724087951108    -5.590701208297
H      0.379556212247     3.361631726831    -6.012884547094
H      0.317815851272     1.716613422629    -4.136698461386
C      0.719539032714     1.131296188963     1.191535164893
H      1.457051611754     1.746324550389     1.698103570138
H      1.009639670639     0.113837510411     0.955862476930
C     -0.584118443525     1.533226761069     1.016362902038
H     -1.308938989184     0.831798320894     0.631129853468
C     -1.100527996672     2.843240676090     1.437594978073
O     -0.293468470726     3.814244503206     1.401937077889
O     -2.478979169903     3.071898622744     1.298047842369
C     -2.939270352796     4.359321117150     1.729750161564
H     -4.042371572422     4.413221202699     1.607588949933
H     -2.702342182351     4.519996492336     2.806339412838
H     -2.482216047844     5.171530368542     1.120609244579
Pd     0.617443297127     2.138744477763    -1.005023660630
C     -0.390649362608    -2.519794091449     1.636780945427
O     -1.019280837355    -1.669244017209     0.793098120784
O      0.436348358658    -3.391565017187     1.312771711012
C     -0.823304106873    -2.247475373326     3.104797889295
H      0.006347499840    -2.565801220598     3.744059024247
C     -2.064181656873    -3.028126455740     3.481667409897
H     -2.317857990485    -2.834969694946     4.543595502218
H     -2.911740568454    -2.690025256398     2.848794839895
H     -1.897162120146    -4.115176387355     3.334249360314
N     -1.121857389374    -0.816515982049     3.226096267177
C     -0.809561752935     0.097405971632     4.175206905843
O     -1.034919026252     1.328004441256     4.029653096292
C     -0.173069170037    -0.388137498759     5.418877099492
H      0.810800744968    -0.811805570831     5.162036676760
H     -0.046482830127     0.474148232183     6.097133324123
H     -0.836848129004    -1.138709473101     5.880074888609
N      1.674671219590     0.592005123199    -1.820685095683
C      2.935613102397     0.719791991320    -2.335004265564
C      3.640669989174    -0.404161168359    -2.706908890242
C      3.086792770661    -1.658526391028    -2.573022855779
C      1.816174615383    -1.764180095560    -2.071918739002
C      1.099999117530    -0.599833519688    -1.706016679852
H      3.386455450106     1.700624316726    -2.432612971999
H      4.636634901932    -0.297114110931    -3.104530941897
H      3.644855156973    -2.545705093114    -2.860707153555
H      1.335227802957    -2.714277668925    -1.944682891217
O     -0.085163567268    -0.759011827824    -1.251245744827
H     -0.614485333470    -1.476886596460    -0.160157524924

