# STO-3G

title

0 1
C      1.738567629952     2.506216692630    -0.162803205297
C      3.016058319709     1.948178407287     0.050542113277
C      4.166753980976     2.735641387451    -0.160147329455
C      4.050906017976     4.069242201279    -0.599555806320
C      2.774021263534     4.614489897182    -0.830481116758
C      1.615800608729     3.836322555700    -0.614142487996
H      0.794830570682    -1.489529490656     0.990437359789
H      3.117947565285     0.907803490145     0.349130001216
H      5.149223050805     2.298552881948     0.006221753002
H      4.941433292501     4.670774522204    -0.765413684730
H      2.670672857947     5.641712266452    -1.174669639860
H      0.638446662765     4.280450827833    -0.794243633594
C      0.105614883388     2.572187539077     2.147927274913
H      0.628904145910     3.489515392044     1.912840095235
H      0.616536590718     1.883583681810     2.808223987470
C     -1.220344040080     2.354567378161     1.828250989326
H     -1.700690282841     1.465798136420     2.211883771985
C     -2.093305206900     3.323487268091     1.144553282962
O     -1.572578393171     4.313005398045     0.566989550335
O     -3.394601656219     2.908286586416     0.818467085161
C     -4.200872584160     3.864120763092     0.114118451616
H     -5.211544101267     3.435184538948    -0.063286220480
H     -4.323334109096     4.796298319087     0.711711732159
H     -3.752429027352     4.115382584079    -0.874031053748
Pd     0.119334323871     1.363137674506     0.124485200314
C     -2.344781843213    -1.154984752763     0.529161187809
O     -1.864759824002     0.117897595784     0.138182209333
O     -3.552133301091    -1.389746826406     0.452124201777
C     -1.212444959891    -2.122487765111     0.892076113088
H     -0.831454249611    -2.498240031463    -0.069378528730
C     -1.721324144458    -3.303648575357     1.694248916979
H     -0.880300024051    -3.997145611062     1.903638610661
H     -2.143920723612    -2.950407607446     2.657542133871
H     -2.504285673925    -3.849176920685     1.127655926588
N     -0.069221998529    -1.541441123451     1.579366682228
C     -0.143321720670    -0.896580645120     2.761217839446
O     -1.204027475956    -0.500561596265     3.318742513292
C      1.157208799442    -0.703441258995     3.436551954509
H      1.838174322251    -0.175495455977     2.747636994295
H      0.997461609085    -0.142762629774     4.373073162262
H      1.565922844452    -1.705965389915     3.653921512305
N      0.751866933787     0.390969721807    -1.557544739195
C      0.557008148711     0.966126598170    -2.782369767278
C      1.041600530673     0.356837077308    -3.918815502672
C      1.739452285975    -0.826961711151    -3.836425496158
C      1.946413586806    -1.380823172835    -2.602473708149
C      1.450455353543    -0.739692655732    -1.438743173852
H      0.004679221677     1.895297084973    -2.858857192946
H      0.877267920456     0.816625125319    -4.878948767671
H      2.125768635895    -1.307488757452    -4.731144143136
H      2.497396979860    -2.289352005007    -2.468528655684
O      1.727664314156    -1.302274405721    -0.322362244348
H     -2.631109746679     0.662701819004    -0.148209233282

