# STO-3G

title

0 1
C      0.035897805574     3.753216706467    -0.984719559369
C      0.954669932981     4.561299962271    -0.284600840908
C      0.917671420611     5.961659297482    -0.450739960688
C     -0.030492993437     6.553408934775    -1.308331836404
C     -0.946014670718     5.739090413965    -2.001972874545
C     -0.916430399010     4.336407421960    -1.843819305955
H     -2.402834816331    -2.338902779201     1.495008900526
H      1.686068689099     4.119445048376     0.389658651133
H      1.624056006349     6.582936650195     0.096377170553
H     -0.057608063147     7.633685847894    -1.430021539653
H     -1.682331516335     6.187914760864    -2.665744339920
H     -1.623098364253     3.718119619077    -2.393286562165
C     -1.537538615597     1.154653361838     0.398284485532
H     -1.336368539360     0.084986488320     0.391291666518
H     -2.449131650989     1.483013340015    -0.092146696231
C     -0.822793890785     2.040637941538     1.201732119491
H     -1.164172711698     3.058327064031     1.301278857503
C      0.296654809209     1.672400933877     2.084374995279
O      0.809907249814     2.588186233706     2.779413745075
O      1.061349775607     0.553858340821     1.714269534727
C      2.190599543675     0.268328313607     2.551790010319
H      2.708021467099    -0.642106170460     2.177412307598
H      2.921010368522     1.108576757230     2.537704158936
H      1.863977496942     0.077133122453     3.599617508147
Pd     0.155761212087     1.770715903813    -0.898905901173
C      0.365133184916    -2.387589702750     1.089043969699
O     -0.326596112549    -1.778454410162     0.088959986062
O      1.541390611763    -2.783995382199     1.008493741703
C     -0.485532287580    -2.520918490217     2.375372266062
H      0.032875204465    -1.949535768267     3.154498083981
C     -0.606629368267    -3.958552015467     2.832037648913
H     -1.163044498421    -3.995702843185     3.791420379647
H     -1.167193764126    -4.539330472966     2.071809526018
H      0.399099658337    -4.404595496097     2.977914350674
N     -1.831037023846    -1.973061167394     2.247044377081
C     -2.211118754294    -0.839042580073     2.893767835228
O     -1.462861103875    -0.127285309398     3.605344088953
C     -3.628324342029    -0.457640019545     2.715162644991
H     -3.815391755646     0.476598018678     3.273020579198
H     -3.812255834593    -0.315379823109     1.638789862662
H     -4.251678861737    -1.277755397179     3.111332373946
N      1.533871006080     1.546382520652    -2.436553112678
C      2.376705503056     2.258169724932    -3.239142820253
C      3.251158610221     1.582804651209    -4.070797062388
C      3.279751293174     0.199802499925    -4.096140530595
C      2.418664949265    -0.493068273740    -3.280854027363
C      1.542920245020     0.230647265297    -2.446880997642
H      2.358250211218     3.342027354630    -3.220632398366
H      3.918597709597     2.145089167818    -4.703038741025
H      3.970215080245    -0.328269026316    -4.748470296410
H      2.390322471846    -1.563349274833    -3.246721875342
O      0.715203292267    -0.394561935443    -1.665395290670
H      0.228987587563    -1.395247481370    -0.685467835032

