# STO-3G

title

0 1
C      1.359739193909     2.954815342848    -0.695295803519
C      2.280419141272     3.272863130815     0.322079672989
C      3.330595212178     4.174212172879     0.039515715685
C      3.457804751840     4.754321455327    -1.236802445815
C      2.528141415737     4.431686154028    -2.244720986009
C      1.477934300233     3.528119936282    -1.979352467241
H      1.192662138276     0.228658839450     1.243500341889
H      2.190178172322     2.838912363839     1.315167067628
H      4.042107929310     4.420736304044     0.825262743633
H      4.268097224172     5.449992391470    -1.443333473947
H      2.616245889404     4.876347575372    -3.234204146340
H      0.772666775882     3.276387095136    -2.769201392765
C     -0.964156326534     2.738659064037     1.268059243766
H     -1.351908439363     1.939954323867     1.893866816069
H     -0.119852182359     3.277644331246     1.676645388307
C     -1.624526165942     3.163625197703     0.112125705796
H     -1.274916724488     4.040711218285    -0.410685507261
C     -2.937575470552     2.654530536831    -0.329746691146
O     -3.546996155459     1.797434460383     0.365267824272
O     -3.468609563617     3.131781698870    -1.539003955787
C     -4.701665803502     2.530662026924    -1.959620788308
H     -5.020429696375     2.978744459486    -2.925397154933
H     -4.575036889350     1.433791627804    -2.111024433467
H     -5.506537936166     2.709990629082    -1.210893074836
Pd    -0.090582553598     1.609420668421    -0.456839084319
C     -1.229921076245    -1.566339702695     1.781958797279
O     -1.743605350811    -0.284168578833     1.864149979908
O     -1.929694594731    -2.577405304144     1.658473476125
C      0.316407307580    -1.566443657911     1.839724946152
H      0.619740176681    -1.835951887149     0.820018945056
C      0.871658058566    -2.638875947698     2.756304177511
H      1.968687495987    -2.508746347426     2.865360385714
H      0.388562190552    -2.596188474826     3.750104230275
H      0.674058462034    -3.641377528865     2.321802539918
N      0.941790052987    -0.269330711310     2.100660131740
C      0.910659382466     0.576603726364     3.167758604757
O      1.293761932333     1.770325430620     3.078675778527
C      0.436227408334     0.075956409518     4.473711491661
H      0.420955497722     0.922715924888     5.183022154221
H     -0.583163808026    -0.321742355878     4.348884815343
H      1.147495518772    -0.685897137537     4.831190860298
N      0.893039459297     0.060480501242    -1.392892346269
C      2.101201617420    -0.254740856974    -1.940104773972
C      2.255215363809    -1.465649702896    -2.589571095371
C      1.203603208002    -2.358019098673    -2.689629970967
C     -0.006924754791    -2.020381037624    -2.137377686496
C     -0.140168419427    -0.775218520520    -1.485433326599
H      2.931444491198     0.437509672744    -1.857732235583
H      3.212763894401    -1.714654313726    -3.016045911128
H      1.332755149314    -3.309965016603    -3.197518621475
H     -0.863123245790    -2.662816863947    -2.179043652804
O     -1.271279144374    -0.436842686083    -0.963101687377
H     -2.652696254960    -0.236460241757     1.490863527733

