# STO-3G

title

0 1
C      1.716812537651     3.276121991627    -0.733730384559
C      2.845521830116     3.302584457709     0.108728463488
C      3.823708664835     4.299181910881    -0.091961666531
C      3.673956129847     5.253031729513    -1.118473989398
C      2.541251121226     5.210555117100    -1.953475519969
C      1.553199931786     4.219193705843    -1.765496223844
H     -0.444460514838    -0.100800047769     1.147463276935
H      2.959448347247     2.558324599905     0.892792567341
H      4.698533191813     4.326093577463     0.554677010523
H      4.431163263969     6.019737758154    -1.265857589637
H      2.420792434089     5.942047347505    -2.750206112551
H      0.688526067982     4.187529840682    -2.425302350989
C     -0.560806030971     2.828222698852     1.188212527503
H     -0.843512743110     2.039696028947     1.880595213183
H      0.182040833570     3.528293196563     1.550279712829
C     -1.296330435709     3.096494764139     0.024691859233
H     -1.097908653589     3.994921890572    -0.538919793156
C     -2.510234101831     2.362487631283    -0.378640471295
O     -3.066514509330     2.672066018694    -1.464104628166
O     -3.022412587301     1.348738945105     0.448807135435
C     -4.063983553339     0.543315849079    -0.120218577353
H     -4.368769346111    -0.237199838456     0.610275999593
H     -4.956392970465     1.161418380936    -0.367323823499
H     -3.702849414622     0.024786890508    -1.037815023266
Pd     0.442075671430     1.782647453356    -0.488930874196
C     -1.911083725018    -2.301616748063     1.736704170176
O     -1.957501588240    -2.000220332547     0.424423509832
O     -2.511606557398    -3.279756280338     2.214359557242
C     -1.130407456841    -1.355267376396     2.716681133583
H     -0.642652159807    -2.033233980862     3.424412209141
C     -2.089253190905    -0.474316490531     3.490528700107
H     -1.529102428016     0.136089927204     4.227508083900
H     -2.610394901268     0.206901520551     2.786878210653
H     -2.838281093595    -1.094218415240     4.026526741244
N     -0.159907011385    -0.480840725177     2.051601770125
C      1.102931877099    -0.130693425332     2.385018200796
O      1.787217276395     0.680736523432     1.700969651190
C      1.688762192292    -0.706564004076     3.613020116706
H      2.702786366476    -0.288342369377     3.745273734711
H      1.050435493528    -0.425658566173     4.466350382187
H      1.750746902407    -1.801538183181     3.491178067302
N      1.223819927577     0.396352107022    -1.870834025290
C      2.241203680480     0.197329196809    -2.758020770283
C      2.324984360458    -1.005861868115    -3.436524576781
C      1.393644142557    -2.005581629574    -3.220023127941
C      0.382632686846    -1.780225746497    -2.318213392685
C      0.338299481876    -0.538996190916    -1.650542434950
H      2.972327668810     0.979276635200    -2.928742311266
H      3.128012267091    -1.161500289973    -4.137711140625
H      1.461186666041    -2.950771496468    -3.752012285982
H     -0.369130987775    -2.512330544091    -2.101557785808
O     -0.615093167298    -0.296289414509    -0.776156349446
H     -1.379824761607    -1.273397930537    -0.054600412323

