# STO-3G

title

0 1
C      0.018598215102     2.777203591624    -0.839200336180
C      0.395066977474     3.299428492990     0.411458113080
C      0.764635636279     4.660674808710     0.494994256967
C      0.751766749487     5.483278541954    -0.647267995528
C      0.364609516458     4.945626293011    -1.890536312456
C     -0.002407732251     3.587495176149    -1.993194485290
H     -0.489397188363    -0.764845770070     1.947207048549
H      0.395822280391     2.686504739943     1.309309598938
H      1.054061430718     5.067914133484     1.461453338167
H      1.036070981461     6.530248396127    -0.569682161426
H      0.343208631946     5.574570746187    -2.778495994580
H     -0.304490757035     3.181653601128    -2.956851659657
C     -1.974035119957     0.675652674255     0.550072471032
H     -1.666778616245     1.295235339327     1.388055988813
H     -1.900727050341    -0.402609251061     0.684750473650
C     -2.647159621311     1.162682717569    -0.570252163307
H     -3.036761985671     0.461506514026    -1.298545610039
C     -3.106502570522     2.552637732342    -0.734639744942
O     -3.603502134150     2.893274248927    -1.839981707668
O     -2.919598432023     3.478641301010     0.304507742735
C     -3.183678545029     4.849750213065    -0.019698448815
H     -2.987672842529     5.480214276681     0.873966736223
H     -2.511634083183     5.196203812006    -0.837308506576
H     -4.245848765447     4.989555884611    -0.322477849258
Pd    -0.436210361964     0.856017799992    -1.068263773042
C      0.692580074641    -2.808954530684     1.176057797537
O     -0.345248939985    -2.248121044252     0.496187298590
O      1.524428204944    -3.600253950670     0.704786587120
C      0.719880333611    -2.303826433671     2.644042285833
H      1.755529442433    -2.388047146908     2.986977690178
C     -0.168448557468    -3.130765542724     3.548003937442
H     -0.092136756159    -2.756394185494     4.589056890325
H     -1.222621888428    -3.033753155357     3.213456735404
H      0.136135276448    -4.197525570692     3.517851554043
N      0.227457704423    -0.922752212762     2.650920937964
C      0.692739855108     0.199566103647     3.243357400663
O      0.218504953094     1.341001700591     2.997586402530
C      1.788185379338     0.062489592530     4.225626654139
H      1.991672823644     1.058611838969     4.658010353915
H      1.453746204482    -0.630235520315     5.015048903635
H      2.685917580791    -0.310352468189     3.705019007208
N      1.276436979938     0.341481701265    -2.104880867285
C      2.448740620916     0.893920716861    -2.534034688155
C      3.401991752522     0.086527387429    -3.126237298311
C      3.181903014673    -1.269484140226    -3.284468814494
C      1.993751259536    -1.799683886103    -2.846201120003
C      1.044852053265    -0.945078859763    -2.249740268611
H      2.627808115936     1.955629185478    -2.407507559586
H      4.328400021152     0.522869498902    -3.461809910638
H      3.935618453688    -1.903736609509    -3.743550707041
H      1.764502325607    -2.843394292657    -2.925673532048
O     -0.083205282912    -1.437883750259    -1.807222637346
H     -0.239595706821    -2.127032981775    -0.536435117304

