# STO-3G

title

0 1
C      0.046338115710     3.187685465423    -0.347565933902
C      0.794952744055     4.113710284011    -1.104697389879
C      0.185190481522     5.307193911833    -1.544282036643
C     -1.162451586789     5.573481994848    -1.231568938056
C     -1.894948120179     4.646825169328    -0.466036810884
C     -1.295017661665     3.451504110736    -0.011036983539
H     -2.301936305611    -1.957198783508     0.010781498571
H      1.839555501124     3.923418176258    -1.342517955094
H      0.765850823962     6.025358072054    -2.120155521449
H     -1.630280663339     6.495099596928    -1.570346214500
H     -2.932493224190     4.849667596928    -0.207875737586
H     -1.872320436050     2.753829917460     0.591263382420
C      0.399363188625     1.398266890291     2.341198691524
H      0.775596848163     0.420161023747     2.633630224928
H     -0.681647875324     1.502319919370     2.323416236605
C      1.247669301024     2.498730592109     2.222105528480
H      0.826795220925     3.482933201219     2.090168662358
C      2.696379171546     2.468143639048     2.489033534897
O      3.357584940405     3.526737368964     2.331352502254
O      3.333839836178     1.230182447238     2.666340800689
C      4.759395517427     1.268986760090     2.817833889208
H      5.140343156928     0.234031201076     2.958213037465
H      5.243261988310     1.695180035455     1.909952945367
H      5.047117457204     1.869789922646     3.710142979350
Pd     0.949806030892     1.493641639482     0.176636535733
C     -0.385614169315    -1.885647122608     2.016191264481
O      0.046614532212    -1.901130170606     0.734608434895
O      0.338357875488    -1.857087390261     3.027529741234
C     -1.937221267338    -1.859601529442     2.073842296600
H     -2.214924029021    -1.173258260043     2.878705120558
C     -2.528701716181    -3.221400339442     2.361311404698
H     -3.633014996649    -3.136555585268     2.429362258374
H     -2.274601909298    -3.917323774264     1.535824084188
H     -2.132770217995    -3.617656157958     3.319262058177
N     -2.498621058948    -1.373071049778     0.815814283066
C     -2.709102841802    -0.047510949062     0.614138096351
O     -2.569600852297     0.841142688380     1.493427428441
C     -3.146296057801     0.358195354278    -0.740371930066
H     -3.357783920656    -0.530837771999    -1.359750048765
H     -4.064641501436     0.957543557903    -0.624886164366
H     -2.344076927640     0.960883558873    -1.197799859320
N      1.234391092086     0.777755259817    -1.749047749891
C      1.020990633326     1.130110781709    -3.050776448245
C      1.424369876743     0.276294575401    -4.059889912258
C      2.038561663702    -0.926932373315    -3.765928357733
C      2.240640560070    -1.258771114579    -2.449226182303
C      1.815402518360    -0.363033583210    -1.446225394204
H      0.537137481314     2.070712438548    -3.287575103426
H      1.254454410876     0.555109354479    -5.087023083889
H      2.353946962273    -1.597284571648    -4.561139289558
H      2.708268310359    -2.175157444298    -2.150863485690
O      1.990572007916    -0.672294935173    -0.188340955690
H      0.984605583979    -1.536937010893     0.488836324172

