# STO-3G

title

0 1
C      0.600002471799     3.103412523546    -1.349809552403
C      1.482052256742     4.061731914278    -0.813456099104
C      1.358012613977     5.414645342794    -1.196506770857
C      0.358539617242     5.809417597685    -2.105982680068
C     -0.521277784865     4.845503319736    -2.636122818229
C     -0.403440493123     3.490662661264    -2.262037840459
H     -1.078657875467    -1.042550432268     1.958565228670
H      2.258080517622     3.773121699236    -0.108133082517
H      2.040054894848     6.152538479575    -0.779054470618
H      0.264362558146     6.853440105425    -2.395021454997
H     -1.301770270944     5.141318320991    -3.334275092794
H     -1.096429929336     2.757492697387    -2.670597042657
C      0.511249740303     1.297812194521     1.271917624188
H      0.905495278109     2.216353942096     1.691150593163
H      1.038333607929     0.380438109365     1.520768416580
C     -0.774863279113     1.232701739465     0.733621451241
H     -1.201822707068     0.272340624434     0.476081088140
C     -1.725608193920     2.355141945328     0.713856524250
O     -2.757239046918     2.242083633100    -0.001806718611
O     -1.302914649904     3.613870419058     1.182216814354
C     -2.201163792750     4.705290343886     0.944448681303
H     -1.765777595165     5.636320603316     1.365093612999
H     -2.353541877786     4.858100767228    -0.147894205987
H     -3.182893093043     4.522230211035     1.437035611139
Pd     0.815185496793     1.181296877889    -0.918388472564
C      0.780505052977    -2.690549924457     1.883183545619
O      0.327411573610    -1.967329398933     0.825644430086
O      1.798319839707    -3.399175614977     1.897569474239
C     -0.165446538332    -2.512831253362     3.103868383714
H      0.471273056663    -2.508307736669     3.995245178735
C     -1.149570728893    -3.658655639434     3.212088790097
H     -1.775481156559    -3.531165020657     4.118091068086
H     -1.813085968415    -3.653780221827     2.321833091248
H     -0.611308317940    -4.627457840877     3.272138599659
N     -0.919505200845    -1.268740748793     2.936783278726
C     -1.296196466319    -0.304417327828     3.811015369908
O     -1.855345801249     0.760618483451     3.439788708037
C     -1.023808633425    -0.528162957572     5.247129246236
H     -1.430668959752     0.329987117844     5.811458644179
H     -1.534841621462    -1.455588158647     5.550889173361
H      0.066852294333    -0.591970394600     5.393867947862
N      1.758561193358     0.550476379295    -2.666476571243
C      2.210089708653     0.992776482430    -3.875705541513
C      2.830614087950     0.103846579427    -4.734334937993
C      2.998036532969    -1.223128169516    -4.381407990673
C      2.537155912326    -1.643555731619    -3.157932178465
C      1.909849454088    -0.708144098459    -2.310590045345
H      2.079881712469     2.031744492026    -4.156746770669
H      3.185644894449     0.453977793489    -5.689759578204
H      3.486471748684    -1.919105645272    -5.058331121880
H      2.638147451346    -2.654771757656    -2.819280689721
O      1.472622387664    -1.074557280786    -1.143218502565
H      0.905107354278    -1.833706822428    -0.013739623077

