# STO-3G

title

0 1
C      0.573190776272     2.455048489096    -0.231052391594
C      1.079202680292     3.661494455701     0.284632941484
C      0.545289998169     4.891244381404    -0.161565196821
C     -0.484046644832     4.918868206137    -1.120169958820
C     -0.976273020184     3.707507608330    -1.645573285446
C     -0.448281033122     2.474995034859    -1.209637719844
H     -2.775187721822     0.674751124068    -0.362675945134
H      1.883688531121     3.672831663473     1.014753931561
H      0.939352725640     5.819872714415     0.246467823637
H     -0.891690845830     5.868962459663    -1.457147975062
H     -1.762983882501     3.718218286894    -2.397634887517
H     -0.814624351401     1.544330585052    -1.639110537173
C      0.114661911845     0.697906367629     2.215987799693
H     -0.350482326822     1.665085639424     2.365641815657
H     -0.553073504702    -0.138548001570     2.049756188089
C      1.456148585002     0.463380541347     2.504304344002
H      1.823605031292    -0.555312730203     2.464348813226
C      2.380478050295     1.432146825767     3.119172486601
O      2.017693733821     2.625612911629     3.286514893237
O      3.702127430206     1.029490129741     3.368986412636
C      4.564216266845     2.023641026909     3.941299669578
H      5.574125848001     1.587563904930     4.101346586136
H      4.668500738125     2.898845970046     3.260393630735
H      4.174457840533     2.366248496540     4.926995173543
Pd     1.237436523395     0.640020319463     0.235442862668
C     -1.414928601093    -1.524013476458    -0.217801969829
O     -0.472528604799    -2.119446775079     0.547501825297
O     -1.239297030418    -1.129512650847    -1.393107067004
C     -2.719414970775    -1.237574092667     0.551267322096
H     -2.628624352541    -1.567546122131     1.587947446212
C     -3.928761780422    -1.882062498167    -0.087743889199
H     -4.832639237736    -1.637950235477     0.507945125825
H     -4.060892482864    -1.482478069274    -1.114870567212
H     -3.802086627611    -2.983330480218    -0.126568446470
N     -2.907590396919     0.217879418502     0.533249743607
C     -3.048099032349     0.942739484544     1.675743586651
O     -3.030946455667     0.466598724195     2.834631133952
C     -3.223844544454     2.396658997639     1.480318710574
H     -4.125289266626     2.547332744249     0.863200219247
H     -3.346454375321     2.872725679719     2.468654850293
H     -2.331045134361     2.794899022099     0.968170243198
N      1.892523244891     0.147612990291    -1.661072129450
C      2.111490828469     0.696712445556    -2.891185128431
C      2.595374825188    -0.099843639076    -3.912507194666
C      2.848567371253    -1.442929409827    -3.702791095173
C      2.617307013783    -1.971000449750    -2.456286713452
C      2.124607387687    -1.126428332198    -1.440747456420
H      1.911393208970     1.748563662331    -3.060562944910
H      2.766289980939     0.334007471051    -4.883877188366
H      3.222885416880    -2.068388781517    -4.508793665607
H      2.789036582448    -3.002387739648    -2.226270961619
O      1.883991338251    -1.615756577054    -0.247764595249
H      0.482119900466    -2.085159684290     0.153513794063

