# STO-3G

title

0 1
C      1.309044417718     3.246367519862     0.147653867051
C      2.314431225037     3.559508412005     1.082438230574
C      2.911109030778     4.838482999828     1.053960815578
C      2.505452700216     5.794213132982     0.102694950196
C      1.499414959585     5.469784253632    -0.828129303207
C      0.898732650367     4.193324416162    -0.812559049456
H     -1.479641932985    -1.272258239744     2.188264751420
H      2.638245502476     2.829022601924     1.820242703985
H      3.687067231310     5.081655171641     1.776879245214
H      2.966440226183     6.778945393226     0.088037761248
H      1.178320100150     6.202764508149    -1.565405878158
H      0.120516547341     3.953409426054    -1.534536966706
C     -0.361929357601     1.547946803086     2.143370885736
H      0.170403944537     2.285836911868     2.735384892351
H     -0.160800574238     0.513257005400     2.415146478271
C     -1.368690622897     1.920980618883     1.249095110187
H     -1.975981591375     1.169994160361     0.754251342191
C     -1.828909000980     3.308683525959     1.065692895920
O     -2.570955031662     3.571311118480     0.084065631164
O     -1.282435465872     4.329987471407     1.862742885637
C     -1.659869928754     5.669336469707     1.516359817588
H     -1.166626595811     6.380851995995     2.212853342638
H     -1.331102984492     5.916847982515     0.481746266286
H     -2.762058846487     5.804725833803     1.599335012218
Pd     0.531955179233     1.426985706866     0.086493455118
C     -2.939814596697    -1.790247816516     0.097423785312
O     -2.322497827153    -0.712954415832    -0.468289759513
O     -4.170903267497    -1.920713010786     0.100083511103
C     -1.946854305831    -2.787930445517     0.783985751344
H     -1.378562626340    -3.279031899947    -0.015878380179
C     -2.652151937586    -3.837570026655     1.612566824065
H     -1.907807383378    -4.520645106335     2.069239535683
H     -3.222748785871    -3.338724433181     2.423784683187
H     -3.349932033944    -4.424128436874     0.979622414712
N     -1.048295367053    -2.028610411110     1.662792955923
C      0.299546753794    -2.097060503617     1.831632213103
O      0.925838040250    -1.280991833527     2.554636797837
C      1.032186352953    -3.202351061378     1.179024485193
H      2.090932944215    -3.144326908182     1.487888997351
H      0.592163398214    -4.152991095029     1.520382746344
H      0.957957719552    -3.083102826895     0.086001521991
N      1.633444897883     0.774093588955    -1.533681270614
C      2.630919665128     1.207175614313    -2.358467871971
C      3.068537661884     0.386476947641    -3.380894219001
C      2.509915779196    -0.862956929570    -3.574126107122
C      1.510954179058    -1.276928125218    -2.727216446350
C      1.088412348377    -0.411340646827    -1.696382090216
H      3.071187240651     2.186979937990    -2.211123813428
H      3.854568869127     0.730519411850    -4.033261003780
H      2.855504307610    -1.505321252290    -4.379857638772
H      1.037190030262    -2.231716469613    -2.823399540985
O      0.151655555205    -0.798963900053    -0.880789592015
H     -1.312904610287    -0.794705868613    -0.638730968687

