# STO-3G

title

0 1
C      1.570132280318     2.876211017027    -0.959168935982
C      2.840574403222     2.666929534895    -0.391450214955
C      3.926889931665     3.441419110575    -0.854199019002
C      3.743949538920     4.400589110063    -1.868802269190
C      2.465961678290     4.592501085390    -2.428597484718
C      1.368540500123     3.828947135143    -1.976088493481
H     -0.722993864178    -1.183017778575     1.246779908531
H      2.991809912785     1.919056689949     0.382714684403
H      4.911293355767     3.287226459479    -0.417472802588
H      4.586501650770     4.992894766790    -2.217894975456
H      2.315613193184     5.333365077593    -3.211331026646
H      0.385106404950     3.984514406756    -2.415966298790
C     -0.159767950542     2.645020343553     1.646802829500
H     -0.727186345768     1.945761906208     2.254716839278
H      0.874531929166     2.784206096551     1.944801594067
C     -0.770082804398     3.517836135005     0.746779793182
H     -0.187844569810     4.315138997764     0.312793815627
C     -2.221050548053     3.609715676644     0.508830120511
O     -2.630717548992     4.384651866218    -0.392552663824
O     -3.084237303453     2.703394610865     1.144276202780
C     -4.467707138253     2.784587601023     0.773341194639
H     -5.047221843414     2.026193701962     1.343431716367
H     -4.884219392117     3.790092130722     1.010101986257
H     -4.600246224179     2.574553180221    -0.312559543668
Pd     0.059160082798     1.709365451828    -0.393774405361
C      2.113293524140    -0.872568044000     2.438531379724
O      1.892431729316     0.310998165691     1.752979034848
O      3.239228338650    -1.178939912086     2.833654649946
C      0.838403136042    -1.741495776182     2.660671886832
H      0.788767268804    -1.906457668152     3.743581165953
C      0.952213031253    -3.081353286614     1.966845751264
H      0.065357162891    -3.701278950974     2.213802195426
H      0.984753550439    -2.931196421737     0.867969941123
H      1.868576263680    -3.613018480982     2.298601731764
N     -0.407611525986    -1.115163997578     2.227828964720
C     -1.195723108308    -0.447072440889     3.120128823743
O     -0.830421256545    -0.072186717799     4.258591335412
C     -2.584648023117    -0.206659493872     2.678147242190
H     -3.098039570975     0.421579077435     3.426431200706
H     -2.560297120243     0.288341422619     1.694028376924
H     -3.080218824297    -1.187804460674     2.583480089047
N      0.491876320802     0.282118579645    -1.806367383583
C      1.323858111116     0.121528672541    -2.876853405913
C      1.322330870661    -1.078213893501    -3.562333257042
C      0.492340872638    -2.113772238919    -3.176067753823
C     -0.331070011564    -1.929540999378    -2.093636628605
C     -0.306606762329    -0.692799961470    -1.413780925749
H      1.977528999924     0.929699178311    -3.184860464286
H      1.980022623879    -1.203877312095    -4.406809653817
H      0.494767913692    -3.056881442164    -3.716041194052
H     -0.993471832766    -2.690071403269    -1.733118457272
O     -1.062018572707    -0.519499234059    -0.370762571993
H      0.942428466334     0.388874731896     1.487231817564

