# STO-3G

title

0 1
C      0.810958739768     2.631716148155    -0.042536900287
C      2.096918829652     2.579707566478     0.530047087315
C      2.981999351876     3.664565052544     0.356035325890
C      2.595144962941     4.788422016943    -0.399483290308
C      1.317877542496     4.822319116363    -0.990816706798
C      0.423418327720     3.744225786471    -0.818448731307
H      1.200190132434    -1.817388936071     0.654124584243
H      2.424615423578     1.694271432362     1.067888067575
H      3.975493529503     3.618325689646     0.797331292137
H      3.284020639668     5.618738941166    -0.535625112048
H      1.015212506653     5.678993114651    -1.589530815390
H     -0.558033213096     3.788142057116    -1.287116298698
C     -0.856767664236     1.589652728665     2.376785660378
H     -0.012843050059     2.156499610073     2.756595552461
H     -0.975168737283     0.583328755540     2.764920859472
C     -1.879434550408     2.187391256190     1.645068552282
H     -2.754022125296     1.607839824798     1.380345735877
C     -1.988175025249     3.636833121322     1.405955575928
O     -2.865961237650     4.051155789237     0.605770134382
O     -1.075161532253     4.513643988975     2.015700194577
C     -1.203276696650     5.899032544259     1.667554731412
H     -0.424300878418     6.484740739551     2.201687211326
H     -1.055247803532     6.048169326010     0.574261968596
H     -2.201852546141     6.292212495691     1.964497526781
Pd    -0.441560718275     1.105211784642     0.201293134610
C     -1.673482347472    -1.643693244245    -0.474732452994
O     -1.969957943855    -0.659337494249     0.474956947754
O     -2.178070020163    -1.634306920135    -1.594138468650
C     -0.620133892148    -2.686379751274     0.010464799260
H     -0.014260746688    -2.912910432824    -0.872878130035
C     -1.266971745801    -3.975900065660     0.477012123655
H     -0.475968592548    -4.703436071731     0.755467033981
H     -1.909991487549    -3.792593835134     1.361099429178
H     -1.881398920828    -4.411282225925    -0.338696199623
N      0.302470038103    -2.208201927740     1.051259733911
C     -0.036743627666    -1.828109956771     2.284721815772
O     -1.239500009871    -1.645104647388     2.691624616117
C      1.077285771507    -1.544396720358     3.203617210239
H      1.702746017802    -0.752974442075     2.752635110498
H      0.675547041290    -1.230336100771     4.181967986689
H      1.670803097871    -2.470101188940     3.306875867486
N      0.444399480342     0.297541943094    -1.484089974205
C     -0.033083489445     0.646389456553    -2.717436538326
C      0.656513767571     0.284338592019    -3.854125668954
C      1.824699704497    -0.438146641595    -3.765924081484
C      2.285804875725    -0.789161779962    -2.526133396390
C      1.569953053499    -0.404237033344    -1.364675486583
H     -0.954585792611     1.210924535276    -2.797864130543
H      0.269194020020     0.564283528942    -4.819336656185
H      2.367034332919    -0.728112169140    -4.661616566495
H      3.184035705921    -1.355278212159    -2.388911448482
O      2.061458405206    -0.787299059061    -0.237886158325
H     -1.858642363988    -1.036299808429     1.438126888501

