# STO-3G

title

0 1
C      1.329623374705     2.102825144439    -0.131639285913
C      2.373978799308     3.014928713029     0.115622277049
C      2.150932560289     4.394702679386    -0.083695754982
C      0.899796445503     4.857848300538    -0.533376102966
C     -0.129447944729     3.934442292918    -0.801631052704
C      0.083107399096     2.552743662088    -0.611801772195
H     -2.574150179042     0.843340035963     0.171880766702
H      3.348608205312     2.675406329999     0.461355196239
H      2.957127782725     5.098428512624     0.114128235389
H      0.732694761677     5.921899843366    -0.683336860801
H     -1.092274681975     4.282286503348    -1.171381670389
H     -0.692626199663     1.835792734134    -0.870804127692
C      0.680073930897    -0.445646857221     1.969142103062
H     -0.256863124044     0.066843957116     2.138453636104
H      0.598617362233    -1.506111140918     1.743098903710
C      1.902405099961     0.130021607002     2.297356755994
H      2.798224389409    -0.477666321644     2.298786732353
C      2.039487848883     1.454481790677     2.928177464574
O      3.196256857296     1.885803381639     3.173348254943
O      0.900288217499     2.258069397027     3.110338728981
C      1.135670126781     3.580538916409     3.611716129643
H      0.165595838358     4.113030058116     3.711976097154
H      1.619274209752     3.544395185713     4.614092224655
H      1.775868608827     4.161050373856     2.909675688292
Pd     1.586819529393     0.137179222510    -0.006114215831
C     -1.487620199736    -1.393008013493    -0.344232037051
O     -0.680780118016    -2.439951362889    -0.091252172479
O     -1.340263011287    -0.579340126971    -1.287630855829
C     -2.589051253510    -1.191477455578     0.715561806753
H     -2.329384037486    -1.721453482356     1.634273882897
C     -3.948144853262    -1.650113520613     0.236786951597
H     -4.694675934283    -1.486571361672     1.041507943194
H     -4.246424573003    -1.054378236408    -0.650874499405
H     -3.920941786956    -2.728031775196    -0.023854421281
N     -2.654398780814     0.246211934057     0.988492290383
C     -2.557441327324     0.748724206349     2.247904280821
O     -2.456271842886     0.057730500940     3.289927571176
C     -2.541945350722     2.223062068299     2.337704590217
H     -2.468559744009     2.509147225257     3.401324966026
H     -1.659721796913     2.586665804909     1.783893352719
H     -3.475563941764     2.605858921869     1.891411077997
N      1.941790715260    -0.069997913093    -2.022820267826
C      2.150703041827     0.704533249781    -3.127055632005
C      2.306932539019     0.098529364482    -4.359739210401
C      2.241454508858    -1.276596587642    -4.485062436867
C      2.019189067900    -2.031605986583    -3.359582537522
C      1.863397233493    -1.377613978548    -2.119758007147
H      2.202130404260     1.783357442879    -3.033009362232
H      2.473337527528     0.710587256434    -5.230792276277
H      2.359511874690    -1.750425067979    -5.455907733423
H      1.948832789606    -3.099544318296    -3.387904311078
O      1.619240892709    -2.082801376040    -1.044138835423
H      0.223122300173    -2.423677882451    -0.605890848854

